MODEL 1
REMARK VINA RESULT:    -9.330      0.000      0.000
REMARK INTER + INTRA:         -13.431
REMARK INTER:                 -12.329
REMARK INTRA:                  -1.101
REMARK UNBOUND:                -1.101
REMARK  Name = 
REMARK  7 active torsions:
REMARK  status: ('A' for Active; 'I' for Inactive)
REMARK    1  A    between atoms: C_1  and  N_2
REMARK    2  A    between atoms: C_4  and  C_5
REMARK    3  A    between atoms: C_6  and  C_7
REMARK    4  A    between atoms: N_9  and  C_10
REMARK    5  A    between atoms: C_10  and  C_11
REMARK    6  A    between atoms: C_11  and  C_12
REMARK    7  A    between atoms: C_12  and  O_13
REMARK                            x       y       z     vdW  Elec       q    Type
REMARK                         _______ _______ _______ _____ _____    ______ ____
ROOT
ATOM      1  C   UNL     1      23.582   0.171  53.486  0.00  0.00    +0.000 C 
ATOM      2  C   UNL     1      22.854   1.095  52.843  0.00  0.00    +0.000 C 
ATOM      3  C   UNL     1      21.493   1.068  53.418  0.00  0.00    +0.000 C 
ATOM      4  O   UNL     1      20.552   1.772  53.103  0.00  0.00    +0.000 OA
ATOM      5  N   UNL     1      21.485   0.114  54.373  0.00  0.00    +0.000 N 
ATOM      6  C   UNL     1      22.695  -0.474  54.474  0.00  0.00    +0.000 C 
ATOM      7  O   UNL     1      22.986  -1.376  55.242  0.00  0.00    +0.000 OA
ATOM      8  H   UNL     1      20.701  -0.121  54.920  0.00  0.00    +0.000 HD
ENDROOT
BRANCH   1  12
ATOM      9  C   UNL     1      27.559  -2.532  52.486  0.00  0.00    +0.000 C 
ATOM     10  N   UNL     1      26.734  -1.405  52.858  0.00  0.00    +0.000 N 
ATOM     11  C   UNL     1      25.365  -1.424  52.898  0.00  0.00    +0.000 A 
ATOM     12  C   UNL     1      24.940  -0.174  53.290  0.00  0.00    +0.000 A 
ATOM     13  C   UNL     1      26.092   0.639  53.491  0.00  0.00    +0.000 A 
ATOM     14  C   UNL     1      26.304   1.979  53.884  0.00  0.00    +0.000 A 
ATOM     15  C   UNL     1      27.609   2.468  54.010  0.00  0.00    +0.000 A 
ATOM     16  C   UNL     1      28.701   1.646  53.748  0.00  0.00    +0.000 A 
ATOM     17  C   UNL     1      28.522   0.320  53.348  0.00  0.00    +0.000 A 
ATOM     18  C   UNL     1      27.209  -0.162  53.225  0.00  0.00    +0.000 A 
ENDBRANCH   1  12
BRANCH   2  19
ATOM     19  C   UNL     1      23.235   1.930  51.766  0.00  0.00    +0.000 A 
ATOM     20  C   UNL     1      24.155   2.951  51.831  0.00  0.00    +0.000 A 
ATOM     21  N   UNL     1      24.270   3.489  50.571  0.00  0.00    +0.000 N 
ATOM     22  C   UNL     1      23.373   2.884  49.712  0.00  0.00    +0.000 A 
ATOM     23  C   UNL     1      23.050   3.133  48.367  0.00  0.00    +0.000 A 
ATOM     24  C   UNL     1      22.138   2.280  47.734  0.00  0.00    +0.000 A 
ATOM     25  C   UNL     1      21.559   1.216  48.416  0.00  0.00    +0.000 A 
ATOM     26  C   UNL     1      21.847   1.003  49.765  0.00  0.00    +0.000 A 
ATOM     27  C   UNL     1      22.756   1.853  50.429  0.00  0.00    +0.000 A 
BRANCH  21  28
ATOM     28  C   UNL     1      25.219   4.533  50.220  0.00  0.00    +0.000 C 
BRANCH  28  29
ATOM     29  C   UNL     1      26.491   4.031  49.534  0.00  0.00    +0.000 C 
BRANCH  29  30
ATOM     30  C   UNL     1      27.233   5.100  48.741  0.00  0.00    +0.000 C 
BRANCH  30  31
ATOM     31  O   UNL     1      28.590   5.148  49.176  0.00  0.00    +0.000 OA
ATOM     32  H   UNL     1      28.968   6.016  48.962  0.00  0.00    +0.000 HD
ENDBRANCH  30  31
ENDBRANCH  29  30
ENDBRANCH  28  29
ENDBRANCH  21  28
ENDBRANCH   2  19
TORSDOF 6
ENDMDL
MODEL 2
REMARK VINA RESULT:    -9.030      0.845      1.961
REMARK INTER + INTRA:         -13.035
REMARK INTER:                 -12.849
REMARK INTRA:                  -0.185
REMARK UNBOUND:                -1.101
REMARK  Name = 
REMARK  7 active torsions:
REMARK  status: ('A' for Active; 'I' for Inactive)
REMARK    1  A    between atoms: C_1  and  N_2
REMARK    2  A    between atoms: C_4  and  C_5
REMARK    3  A    between atoms: C_6  and  C_7
REMARK    4  A    between atoms: N_9  and  C_10
REMARK    5  A    between atoms: C_10  and  C_11
REMARK    6  A    between atoms: C_11  and  C_12
REMARK    7  A    between atoms: C_12  and  O_13
REMARK                            x       y       z     vdW  Elec       q    Type
REMARK                         _______ _______ _______ _____ _____    ______ ____
ROOT
ATOM      1  C   UNL     1      24.204   0.335  53.591  0.00  0.00    +0.000 C 
ATOM      2  C   UNL     1      23.335   0.970  52.792  0.00  0.00    +0.000 C 
ATOM      3  C   UNL     1      21.978   0.521  53.165  0.00  0.00    +0.000 C 
ATOM      4  O   UNL     1      20.926   0.885  52.674  0.00  0.00    +0.000 OA
ATOM      5  N   UNL     1      22.117  -0.372  54.168  0.00  0.00    +0.000 N 
ATOM      6  C   UNL     1      23.419  -0.543  54.480  0.00  0.00    +0.000 C 
ATOM      7  O   UNL     1      23.852  -1.295  55.337  0.00  0.00    +0.000 OA
ATOM      8  H   UNL     1      21.370  -0.836  54.610  0.00  0.00    +0.000 HD
ENDROOT
BRANCH   1  12
ATOM      9  C   UNL     1      28.683   2.310  53.996  0.00  0.00    +0.000 C 
ATOM     10  N   UNL     1      27.635   1.338  53.778  0.00  0.00    +0.000 N 
ATOM     11  C   UNL     1      26.296   1.602  53.892  0.00  0.00    +0.000 A 
ATOM     12  C   UNL     1      25.615   0.436  53.615  0.00  0.00    +0.000 A 
ATOM     13  C   UNL     1      26.575  -0.576  53.327  0.00  0.00    +0.000 A 
ATOM     14  C   UNL     1      26.501  -1.944  52.982  0.00  0.00    +0.000 A 
ATOM     15  C   UNL     1      27.676  -2.662  52.735  0.00  0.00    +0.000 A 
ATOM     16  C   UNL     1      28.918  -2.041  52.830  0.00  0.00    +0.000 A 
ATOM     17  C   UNL     1      29.022  -0.693  53.179  0.00  0.00    +0.000 A 
ATOM     18  C   UNL     1      27.838   0.020  53.424  0.00  0.00    +0.000 A 
ENDBRANCH   1  12
BRANCH   2  19
ATOM     19  C   UNL     1      23.602   1.867  51.730  0.00  0.00    +0.000 A 
ATOM     20  C   UNL     1      24.510   2.899  51.763  0.00  0.00    +0.000 A 
ATOM     21  N   UNL     1      24.499   3.504  50.529  0.00  0.00    +0.000 N 
ATOM     22  C   UNL     1      23.532   2.929  49.726  0.00  0.00    +0.000 A 
ATOM     23  C   UNL     1      23.079   3.243  48.433  0.00  0.00    +0.000 A 
ATOM     24  C   UNL     1      22.122   2.408  47.844  0.00  0.00    +0.000 A 
ATOM     25  C   UNL     1      21.625   1.299  48.519  0.00  0.00    +0.000 A 
ATOM     26  C   UNL     1      22.042   1.022  49.822  0.00  0.00    +0.000 A 
ATOM     27  C   UNL     1      22.999   1.852  50.442  0.00  0.00    +0.000 A 
BRANCH  21  28
ATOM     28  C   UNL     1      25.396   4.582  50.147  0.00  0.00    +0.000 C 
BRANCH  28  29
ATOM     29  C   UNL     1      26.598   4.141  49.310  0.00  0.00    +0.000 C 
BRANCH  29  30
ATOM     30  C   UNL     1      27.366   5.291  48.669  0.00  0.00    +0.000 C 
BRANCH  30  31
ATOM     31  O   UNL     1      28.725   5.245  49.100  0.00  0.00    +0.000 OA
ATOM     32  H   UNL     1      29.090   6.144  49.115  0.00  0.00    +0.000 HD
ENDBRANCH  30  31
ENDBRANCH  29  30
ENDBRANCH  28  29
ENDBRANCH  21  28
ENDBRANCH   2  19
TORSDOF 6
ENDMDL
MODEL 3
REMARK VINA RESULT:    -8.541      2.252      5.949
REMARK INTER + INTRA:         -12.389
REMARK INTER:                 -11.211
REMARK INTRA:                  -1.178
REMARK UNBOUND:                -1.101
REMARK  Name = 
REMARK  7 active torsions:
REMARK  status: ('A' for Active; 'I' for Inactive)
REMARK    1  A    between atoms: C_1  and  N_2
REMARK    2  A    between atoms: C_4  and  C_5
REMARK    3  A    between atoms: C_6  and  C_7
REMARK    4  A    between atoms: N_9  and  C_10
REMARK    5  A    between atoms: C_10  and  C_11
REMARK    6  A    between atoms: C_11  and  C_12
REMARK    7  A    between atoms: C_12  and  O_13
REMARK                            x       y       z     vdW  Elec       q    Type
REMARK                         _______ _______ _______ _____ _____    ______ ____
ROOT
ATOM      1  C   UNL     1      24.514   2.169  52.546  0.00  0.00    +0.000 C 
ATOM      2  C   UNL     1      23.543   1.244  52.572  0.00  0.00    +0.000 C 
ATOM      3  C   UNL     1      24.039   0.101  53.366  0.00  0.00    +0.000 C 
ATOM      4  O   UNL     1      23.440  -0.925  53.625  0.00  0.00    +0.000 OA
ATOM      5  N   UNL     1      25.293   0.409  53.764  0.00  0.00    +0.000 N 
ATOM      6  C   UNL     1      25.653   1.628  53.311  0.00  0.00    +0.000 C 
ATOM      7  O   UNL     1      26.730   2.168  53.502  0.00  0.00    +0.000 OA
ATOM      8  H   UNL     1      25.865  -0.177  54.309  0.00  0.00    +0.000 HD
ENDROOT
BRANCH   1  12
ATOM      9  C   UNL     1      23.143   6.737  51.374  0.00  0.00    +0.000 C 
ATOM     10  N   UNL     1      23.872   5.489  51.372  0.00  0.00    +0.000 N 
ATOM     11  C   UNL     1      23.610   4.436  52.208  0.00  0.00    +0.000 A 
ATOM     12  C   UNL     1      24.508   3.434  51.912  0.00  0.00    +0.000 A 
ATOM     13  C   UNL     1      25.350   3.895  50.860  0.00  0.00    +0.000 A 
ATOM     14  C   UNL     1      26.434   3.341  50.143  0.00  0.00    +0.000 A 
ATOM     15  C   UNL     1      27.040   4.080  49.121  0.00  0.00    +0.000 A 
ATOM     16  C   UNL     1      26.587   5.358  48.807  0.00  0.00    +0.000 A 
ATOM     17  C   UNL     1      25.524   5.935  49.507  0.00  0.00    +0.000 A 
ATOM     18  C   UNL     1      24.921   5.186  50.530  0.00  0.00    +0.000 A 
ENDBRANCH   1  12
BRANCH   2  19
ATOM     19  C   UNL     1      22.282   1.265  51.930  0.00  0.00    +0.000 A 
ATOM     20  C   UNL     1      21.073   1.009  52.533  0.00  0.00    +0.000 A 
ATOM     21  N   UNL     1      20.092   1.169  51.584  0.00  0.00    +0.000 N 
ATOM     22  C   UNL     1      20.660   1.442  50.353  0.00  0.00    +0.000 A 
ATOM     23  C   UNL     1      20.097   1.600  49.075  0.00  0.00    +0.000 A 
ATOM     24  C   UNL     1      20.941   1.957  48.018  0.00  0.00    +0.000 A 
ATOM     25  C   UNL     1      22.303   2.147  48.220  0.00  0.00    +0.000 A 
ATOM     26  C   UNL     1      22.864   1.940  49.482  0.00  0.00    +0.000 A 
ATOM     27  C   UNL     1      22.037   1.571  50.563  0.00  0.00    +0.000 A 
BRANCH  21  28
ATOM     28  C   UNL     1      18.669   1.074  51.865  0.00  0.00    +0.000 C 
BRANCH  28  29
ATOM     29  C   UNL     1      18.082  -0.329  51.702  0.00  0.00    +0.000 C 
BRANCH  29  30
ATOM     30  C   UNL     1      18.079  -1.156  52.983  0.00  0.00    +0.000 C 
BRANCH  30  31
ATOM     31  O   UNL     1      16.815  -1.017  53.628  0.00  0.00    +0.000 OA
ATOM     32  H   UNL     1      16.107  -1.078  52.967  0.00  0.00    +0.000 HD
ENDBRANCH  30  31
ENDBRANCH  29  30
ENDBRANCH  28  29
ENDBRANCH  21  28
ENDBRANCH   2  19
TORSDOF 6
ENDMDL
MODEL 4
REMARK VINA RESULT:    -8.358      2.396      5.805
REMARK INTER + INTRA:         -12.147
REMARK INTER:                 -11.632
REMARK INTRA:                  -0.515
REMARK UNBOUND:                -1.101
REMARK  Name = 
REMARK  7 active torsions:
REMARK  status: ('A' for Active; 'I' for Inactive)
REMARK    1  A    between atoms: C_1  and  N_2
REMARK    2  A    between atoms: C_4  and  C_5
REMARK    3  A    between atoms: C_6  and  C_7
REMARK    4  A    between atoms: N_9  and  C_10
REMARK    5  A    between atoms: C_10  and  C_11
REMARK    6  A    between atoms: C_11  and  C_12
REMARK    7  A    between atoms: C_12  and  O_13
REMARK                            x       y       z     vdW  Elec       q    Type
REMARK                         _______ _______ _______ _____ _____    ______ ____
ROOT
ATOM      1  C   UNL     1      20.622  -0.233  53.078  0.00  0.00    +0.000 C 
ATOM      2  C   UNL     1      21.862  -0.085  53.565  0.00  0.00    +0.000 C 
ATOM      3  C   UNL     1      22.056  -1.112  54.609  0.00  0.00    +0.000 C 
ATOM      4  O   UNL     1      23.060  -1.303  55.271  0.00  0.00    +0.000 OA
ATOM      5  N   UNL     1      20.907  -1.815  54.693  0.00  0.00    +0.000 N 
ATOM      6  C   UNL     1      19.996  -1.350  53.812  0.00  0.00    +0.000 C 
ATOM      7  O   UNL     1      18.864  -1.779  53.666  0.00  0.00    +0.000 OA
ATOM      8  H   UNL     1      20.754  -2.565  55.312  0.00  0.00    +0.000 HD
ENDROOT
BRANCH   1  12
ATOM      9  C   UNL     1      17.104   2.206  50.672  0.00  0.00    +0.000 C 
ATOM     10  N   UNL     1      18.379   1.597  50.974  0.00  0.00    +0.000 N 
ATOM     11  C   UNL     1      18.676   0.956  52.147  0.00  0.00    +0.000 A 
ATOM     12  C   UNL     1      19.978   0.515  52.064  0.00  0.00    +0.000 A 
ATOM     13  C   UNL     1      20.496   0.906  50.797  0.00  0.00    +0.000 A 
ATOM     14  C   UNL     1      21.738   0.752  50.142  0.00  0.00    +0.000 A 
ATOM     15  C   UNL     1      21.908   1.253  48.847  0.00  0.00    +0.000 A 
ATOM     16  C   UNL     1      20.863   1.905  48.198  0.00  0.00    +0.000 A 
ATOM     17  C   UNL     1      19.628   2.081  48.825  0.00  0.00    +0.000 A 
ATOM     18  C   UNL     1      19.466   1.575  50.124  0.00  0.00    +0.000 A 
ENDBRANCH   1  12
BRANCH   2  19
ATOM     19  C   UNL     1      22.833   0.891  53.233  0.00  0.00    +0.000 A 
ATOM     20  C   UNL     1      22.614   2.248  53.172  0.00  0.00    +0.000 A 
ATOM     21  N   UNL     1      23.810   2.848  52.856  0.00  0.00    +0.000 N 
ATOM     22  C   UNL     1      24.779   1.888  52.628  0.00  0.00    +0.000 A 
ATOM     23  C   UNL     1      26.114   1.988  52.202  0.00  0.00    +0.000 A 
ATOM     24  C   UNL     1      26.880   0.818  52.142  0.00  0.00    +0.000 A 
ATOM     25  C   UNL     1      26.337  -0.414  52.489  0.00  0.00    +0.000 A 
ATOM     26  C   UNL     1      24.996  -0.512  52.864  0.00  0.00    +0.000 A 
ATOM     27  C   UNL     1      24.199   0.649  52.925  0.00  0.00    +0.000 A 
BRANCH  21  28
ATOM     28  C   UNL     1      24.002   4.287  52.792  0.00  0.00    +0.000 C 
BRANCH  28  29
ATOM     29  C   UNL     1      23.162   4.994  51.726  0.00  0.00    +0.000 C 
BRANCH  29  30
ATOM     30  C   UNL     1      23.767   6.299  51.221  0.00  0.00    +0.000 C 
BRANCH  30  31
ATOM     31  O   UNL     1      24.563   6.876  52.253  0.00  0.00    +0.000 OA
ATOM     32  H   UNL     1      25.352   7.284  51.862  0.00  0.00    +0.000 HD
ENDBRANCH  30  31
ENDBRANCH  29  30
ENDBRANCH  28  29
ENDBRANCH  21  28
ENDBRANCH   2  19
TORSDOF 6
ENDMDL
MODEL 5
REMARK VINA RESULT:    -8.265      2.463      5.507
REMARK INTER + INTRA:         -12.024
REMARK INTER:                 -11.062
REMARK INTRA:                  -0.962
REMARK UNBOUND:                -1.101
REMARK  Name = 
REMARK  7 active torsions:
REMARK  status: ('A' for Active; 'I' for Inactive)
REMARK    1  A    between atoms: C_1  and  N_2
REMARK    2  A    between atoms: C_4  and  C_5
REMARK    3  A    between atoms: C_6  and  C_7
REMARK    4  A    between atoms: N_9  and  C_10
REMARK    5  A    between atoms: C_10  and  C_11
REMARK    6  A    between atoms: C_11  and  C_12
REMARK    7  A    between atoms: C_12  and  O_13
REMARK                            x       y       z     vdW  Elec       q    Type
REMARK                         _______ _______ _______ _____ _____    ______ ____
ROOT
ATOM      1  C   UNL     1      23.709   1.073  52.414  0.00  0.00    +0.000 C 
ATOM      2  C   UNL     1      24.583   2.088  52.461  0.00  0.00    +0.000 C 
ATOM      3  C   UNL     1      25.676   1.693  53.373  0.00  0.00    +0.000 C 
ATOM      4  O   UNL     1      26.661   2.346  53.661  0.00  0.00    +0.000 OA
ATOM      5  N   UNL     1      25.383   0.456  53.830  0.00  0.00    +0.000 N 
ATOM      6  C   UNL     1      24.220   0.015  53.307  0.00  0.00    +0.000 C 
ATOM      7  O   UNL     1      23.696  -1.061  53.544  0.00  0.00    +0.000 OA
ATOM      8  H   UNL     1      25.943  -0.053  54.459  0.00  0.00    +0.000 HD
ENDROOT
BRANCH   1  12
ATOM      9  C   UNL     1      20.510   1.554  48.719  0.00  0.00    +0.000 C 
ATOM     10  N   UNL     1      21.058   1.220  50.014  0.00  0.00    +0.000 N 
ATOM     11  C   UNL     1      22.361   1.425  50.382  0.00  0.00    +0.000 A 
ATOM     12  C   UNL     1      22.503   0.981  51.679  0.00  0.00    +0.000 A 
ATOM     13  C   UNL     1      21.242   0.483  52.115  0.00  0.00    +0.000 A 
ATOM     14  C   UNL     1      20.763  -0.092  53.313  0.00  0.00    +0.000 A 
ATOM     15  C   UNL     1      19.418  -0.460  53.417  0.00  0.00    +0.000 A 
ATOM     16  C   UNL     1      18.547  -0.267  52.349  0.00  0.00    +0.000 A 
ATOM     17  C   UNL     1      18.995   0.289  51.148  0.00  0.00    +0.000 A 
ATOM     18  C   UNL     1      20.346   0.656  51.053  0.00  0.00    +0.000 A 
ENDBRANCH   1  12
BRANCH   2  19
ATOM     19  C   UNL     1      24.504   3.354  51.832  0.00  0.00    +0.000 A 
ATOM     20  C   UNL     1      23.582   4.334  52.118  0.00  0.00    +0.000 A 
ATOM     21  N   UNL     1      23.866   5.418  51.322  0.00  0.00    +0.000 N 
ATOM     22  C   UNL     1      24.907   5.118  50.463  0.00  0.00    +0.000 A 
ATOM     23  C   UNL     1      25.500   5.848  49.418  0.00  0.00    +0.000 A 
ATOM     24  C   UNL     1      26.612   5.296  48.772  0.00  0.00    +0.000 A 
ATOM     25  C   UNL     1      27.117   4.056  49.146  0.00  0.00    +0.000 A 
ATOM     26  C   UNL     1      26.494   3.315  50.151  0.00  0.00    +0.000 A 
ATOM     27  C   UNL     1      25.366   3.843  50.813  0.00  0.00    +0.000 A 
BRANCH  21  28
ATOM     28  C   UNL     1      23.165   6.689  51.403  0.00  0.00    +0.000 C 
BRANCH  28  29
ATOM     29  C   UNL     1      21.713   6.645  50.923  0.00  0.00    +0.000 C 
BRANCH  29  30
ATOM     30  C   UNL     1      21.561   6.522  49.411  0.00  0.00    +0.000 C 
BRANCH  30  31
ATOM     31  O   UNL     1      21.288   5.163  49.077  0.00  0.00    +0.000 OA
ATOM     32  H   UNL     1      20.353   4.970  49.250  0.00  0.00    +0.000 HD
ENDBRANCH  30  31
ENDBRANCH  29  30
ENDBRANCH  28  29
ENDBRANCH  21  28
ENDBRANCH   2  19
TORSDOF 6
ENDMDL
MODEL 6
REMARK VINA RESULT:    -8.223      2.135      3.149
REMARK INTER + INTRA:         -11.968
REMARK INTER:                 -10.092
REMARK INTRA:                  -1.876
REMARK UNBOUND:                -1.101
REMARK  Name = 
REMARK  7 active torsions:
REMARK  status: ('A' for Active; 'I' for Inactive)
REMARK    1  A    between atoms: C_1  and  N_2
REMARK    2  A    between atoms: C_4  and  C_5
REMARK    3  A    between atoms: C_6  and  C_7
REMARK    4  A    between atoms: N_9  and  C_10
REMARK    5  A    between atoms: C_10  and  C_11
REMARK    6  A    between atoms: C_11  and  C_12
REMARK    7  A    between atoms: C_12  and  O_13
REMARK                            x       y       z     vdW  Elec       q    Type
REMARK                         _______ _______ _______ _____ _____    ______ ____
ROOT
ATOM      1  C   UNL     1      22.965   0.311  53.370  0.00  0.00    +0.000 C 
ATOM      2  C   UNL     1      22.194   1.138  52.649  0.00  0.00    +0.000 C 
ATOM      3  C   UNL     1      20.853   1.150  53.268  0.00  0.00    +0.000 C 
ATOM      4  O   UNL     1      19.885   1.792  52.905  0.00  0.00    +0.000 OA
ATOM      5  N   UNL     1      20.898   0.314  54.328  0.00  0.00    +0.000 N 
ATOM      6  C   UNL     1      22.125  -0.231  54.456  0.00  0.00    +0.000 C 
ATOM      7  O   UNL     1      22.462  -1.030  55.313  0.00  0.00    +0.000 OA
ATOM      8  H   UNL     1      20.138   0.129  54.925  0.00  0.00    +0.000 HD
ENDROOT
BRANCH   1  12
ATOM      9  C   UNL     1      26.957  -2.373  52.384  0.00  0.00    +0.000 C 
ATOM     10  N   UNL     1      26.125  -1.248  52.744  0.00  0.00    +0.000 N 
ATOM     11  C   UNL     1      24.757  -1.278  52.794  0.00  0.00    +0.000 A 
ATOM     12  C   UNL     1      24.324  -0.025  53.170  0.00  0.00    +0.000 A 
ATOM     13  C   UNL     1      25.470   0.800  53.351  0.00  0.00    +0.000 A 
ATOM     14  C   UNL     1      25.674   2.148  53.721  0.00  0.00    +0.000 A 
ATOM     15  C   UNL     1      26.975   2.649  53.831  0.00  0.00    +0.000 A 
ATOM     16  C   UNL     1      28.072   1.833  53.574  0.00  0.00    +0.000 A 
ATOM     17  C   UNL     1      27.901   0.499  53.195  0.00  0.00    +0.000 A 
ATOM     18  C   UNL     1      26.592   0.004  53.089  0.00  0.00    +0.000 A 
ENDBRANCH   1  12
BRANCH   2  19
ATOM     19  C   UNL     1      22.520   1.847  51.468  0.00  0.00    +0.000 A 
ATOM     20  C   UNL     1      22.396   1.366  50.185  0.00  0.00    +0.000 A 
ATOM     21  N   UNL     1      22.777   2.369  49.326  0.00  0.00    +0.000 N 
ATOM     22  C   UNL     1      23.227   3.463  50.041  0.00  0.00    +0.000 A 
ATOM     23  C   UNL     1      23.793   4.683  49.631  0.00  0.00    +0.000 A 
ATOM     24  C   UNL     1      24.079   5.643  50.608  0.00  0.00    +0.000 A 
ATOM     25  C   UNL     1      23.818   5.400  51.951  0.00  0.00    +0.000 A 
ATOM     26  C   UNL     1      23.303   4.168  52.357  0.00  0.00    +0.000 A 
ATOM     27  C   UNL     1      23.013   3.179  51.394  0.00  0.00    +0.000 A 
BRANCH  21  28
ATOM     28  C   UNL     1      22.693   2.271  47.878  0.00  0.00    +0.000 C 
BRANCH  28  29
ATOM     29  C   UNL     1      21.644   3.182  47.239  0.00  0.00    +0.000 C 
BRANCH  29  30
ATOM     30  C   UNL     1      20.357   3.311  48.046  0.00  0.00    +0.000 C 
BRANCH  30  31
ATOM     31  O   UNL     1      19.474   2.249  47.691  0.00  0.00    +0.000 OA
ATOM     32  H   UNL     1      18.659   2.619  47.315  0.00  0.00    +0.000 HD
ENDBRANCH  30  31
ENDBRANCH  29  30
ENDBRANCH  28  29
ENDBRANCH  21  28
ENDBRANCH   2  19
TORSDOF 6
ENDMDL
MODEL 7
REMARK VINA RESULT:    -8.160      1.828      3.020
REMARK INTER + INTRA:         -11.885
REMARK INTER:                 -11.004
REMARK INTRA:                  -0.881
REMARK UNBOUND:                -1.101
REMARK  Name = 
REMARK  7 active torsions:
REMARK  status: ('A' for Active; 'I' for Inactive)
REMARK    1  A    between atoms: C_1  and  N_2
REMARK    2  A    between atoms: C_4  and  C_5
REMARK    3  A    between atoms: C_6  and  C_7
REMARK    4  A    between atoms: N_9  and  C_10
REMARK    5  A    between atoms: C_10  and  C_11
REMARK    6  A    between atoms: C_11  and  C_12
REMARK    7  A    between atoms: C_12  and  O_13
REMARK                            x       y       z     vdW  Elec       q    Type
REMARK                         _______ _______ _______ _____ _____    ______ ____
ROOT
ATOM      1  C   UNL     1      24.686   0.699  53.112  0.00  0.00    +0.000 C 
ATOM      2  C   UNL     1      24.005   1.538  52.317  0.00  0.00    +0.000 C 
ATOM      3  C   UNL     1      22.582   1.147  52.375  0.00  0.00    +0.000 C 
ATOM      4  O   UNL     1      21.653   1.681  51.798  0.00  0.00    +0.000 OA
ATOM      5  N   UNL     1      22.495   0.082  53.200  0.00  0.00    +0.000 N 
ATOM      6  C   UNL     1      23.712  -0.251  53.681  0.00  0.00    +0.000 C 
ATOM      7  O   UNL     1      23.947  -1.176  54.440  0.00  0.00    +0.000 OA
ATOM      8  H   UNL     1      21.659  -0.386  53.422  0.00  0.00    +0.000 HD
ENDROOT
BRANCH   1  12
ATOM      9  C   UNL     1      29.177   2.261  54.344  0.00  0.00    +0.000 C 
ATOM     10  N   UNL     1      28.104   1.390  53.918  0.00  0.00    +0.000 N 
ATOM     11  C   UNL     1      26.793   1.770  53.807  0.00  0.00    +0.000 A 
ATOM     12  C   UNL     1      26.075   0.674  53.382  0.00  0.00    +0.000 A 
ATOM     13  C   UNL     1      26.981  -0.415  53.232  0.00  0.00    +0.000 A 
ATOM     14  C   UNL     1      26.852  -1.765  52.838  0.00  0.00    +0.000 A 
ATOM     15  C   UNL     1      27.986  -2.581  52.774  0.00  0.00    +0.000 A 
ATOM     16  C   UNL     1      29.241  -2.075  53.101  0.00  0.00    +0.000 A 
ATOM     17  C   UNL     1      29.397  -0.747  53.505  0.00  0.00    +0.000 A 
ATOM     18  C   UNL     1      28.253   0.065  53.564  0.00  0.00    +0.000 A 
ENDBRANCH   1  12
BRANCH   2  19
ATOM     19  C   UNL     1      24.501   2.581  51.500  0.00  0.00    +0.000 A 
ATOM     20  C   UNL     1      25.471   2.447  50.533  0.00  0.00    +0.000 A 
ATOM     21  N   UNL     1      25.641   3.677  49.941  0.00  0.00    +0.000 N 
ATOM     22  C   UNL     1      24.853   4.622  50.572  0.00  0.00    +0.000 A 
ATOM     23  C   UNL     1      24.737   6.011  50.398  0.00  0.00    +0.000 A 
ATOM     24  C   UNL     1      23.774   6.695  51.149  0.00  0.00    +0.000 A 
ATOM     25  C   UNL     1      22.956   6.023  52.050  0.00  0.00    +0.000 A 
ATOM     26  C   UNL     1      23.110   4.651  52.253  0.00  0.00    +0.000 A 
ATOM     27  C   UNL     1      24.079   3.938  51.516  0.00  0.00    +0.000 A 
BRANCH  21  28
ATOM     28  C   UNL     1      26.517   3.915  48.806  0.00  0.00    +0.000 C 
BRANCH  28  29
ATOM     29  C   UNL     1      27.762   4.744  49.129  0.00  0.00    +0.000 C 
BRANCH  29  30
ATOM     30  C   UNL     1      27.875   6.035  48.325  0.00  0.00    +0.000 C 
BRANCH  30  31
ATOM     31  O   UNL     1      27.904   7.143  49.222  0.00  0.00    +0.000 OA
ATOM     32  H   UNL     1      27.187   7.054  49.869  0.00  0.00    +0.000 HD
ENDBRANCH  30  31
ENDBRANCH  29  30
ENDBRANCH  28  29
ENDBRANCH  21  28
ENDBRANCH   2  19
TORSDOF 6
ENDMDL
MODEL 8
REMARK VINA RESULT:    -7.965      2.540      5.662
REMARK INTER + INTRA:         -11.627
REMARK INTER:                 -10.903
REMARK INTRA:                  -0.724
REMARK UNBOUND:                -1.101
REMARK  Name = 
REMARK  7 active torsions:
REMARK  status: ('A' for Active; 'I' for Inactive)
REMARK    1  A    between atoms: C_1  and  N_2
REMARK    2  A    between atoms: C_4  and  C_5
REMARK    3  A    between atoms: C_6  and  C_7
REMARK    4  A    between atoms: N_9  and  C_10
REMARK    5  A    between atoms: C_10  and  C_11
REMARK    6  A    between atoms: C_11  and  C_12
REMARK    7  A    between atoms: C_12  and  O_13
REMARK                            x       y       z     vdW  Elec       q    Type
REMARK                         _______ _______ _______ _____ _____    ______ ____
ROOT
ATOM      1  C   UNL     1      21.474   0.783  52.892  0.00  0.00    +0.000 C 
ATOM      2  C   UNL     1      22.731   1.002  52.482  0.00  0.00    +0.000 C 
ATOM      3  C   UNL     1      23.623   0.171  53.317  0.00  0.00    +0.000 C 
ATOM      4  O   UNL     1      24.834   0.088  53.236  0.00  0.00    +0.000 OA
ATOM      5  N   UNL     1      22.839  -0.495  54.192  0.00  0.00    +0.000 N 
ATOM      6  C   UNL     1      21.540  -0.182  54.007  0.00  0.00    +0.000 C 
ATOM      7  O   UNL     1      20.603  -0.619  54.654  0.00  0.00    +0.000 OA
ATOM      8  H   UNL     1      23.172  -1.124  54.872  0.00  0.00    +0.000 HD
ENDROOT
BRANCH   1  12
ATOM      9  C   UNL     1      18.235   4.165  51.411  0.00  0.00    +0.000 C 
ATOM     10  N   UNL     1      18.810   2.883  51.751  0.00  0.00    +0.000 N 
ATOM     11  C   UNL     1      20.097   2.698  52.179  0.00  0.00    +0.000 A 
ATOM     12  C   UNL     1      20.275   1.349  52.398  0.00  0.00    +0.000 A 
ATOM     13  C   UNL     1      19.053   0.688  52.087  0.00  0.00    +0.000 A 
ATOM     14  C   UNL     1      18.619  -0.656  52.108  0.00  0.00    +0.000 A 
ATOM     15  C   UNL     1      17.302  -0.967  51.752  0.00  0.00    +0.000 A 
ATOM     16  C   UNL     1      16.415   0.038  51.374  0.00  0.00    +0.000 A 
ATOM     17  C   UNL     1      16.819   1.374  51.334  0.00  0.00    +0.000 A 
ATOM     18  C   UNL     1      18.143   1.676  51.694  0.00  0.00    +0.000 A 
ENDBRANCH   1  12
BRANCH   2  19
ATOM     19  C   UNL     1      23.195   1.895  51.487  0.00  0.00    +0.000 A 
ATOM     20  C   UNL     1      24.141   2.877  51.671  0.00  0.00    +0.000 A 
ATOM     21  N   UNL     1      24.340   3.496  50.459  0.00  0.00    +0.000 N 
ATOM     22  C   UNL     1      23.470   2.983  49.515  0.00  0.00    +0.000 A 
ATOM     23  C   UNL     1      23.227   3.335  48.176  0.00  0.00    +0.000 A 
ATOM     24  C   UNL     1      22.324   2.560  47.440  0.00  0.00    +0.000 A 
ATOM     25  C   UNL     1      21.677   1.472  48.015  0.00  0.00    +0.000 A 
ATOM     26  C   UNL     1      21.886   1.157  49.358  0.00  0.00    +0.000 A 
ATOM     27  C   UNL     1      22.784   1.927  50.126  0.00  0.00    +0.000 A 
BRANCH  21  28
ATOM     28  C   UNL     1      25.337   4.528  50.231  0.00  0.00    +0.000 C 
BRANCH  28  29
ATOM     29  C   UNL     1      26.606   4.041  49.529  0.00  0.00    +0.000 C 
BRANCH  29  30
ATOM     30  C   UNL     1      27.355   5.130  48.770  0.00  0.00    +0.000 C 
BRANCH  30  31
ATOM     31  O   UNL     1      28.728   5.108  49.153  0.00  0.00    +0.000 OA
ATOM     32  H   UNL     1      29.102   6.000  49.067  0.00  0.00    +0.000 HD
ENDBRANCH  30  31
ENDBRANCH  29  30
ENDBRANCH  28  29
ENDBRANCH  21  28
ENDBRANCH   2  19
TORSDOF 6
ENDMDL
MODEL 9
REMARK VINA RESULT:    -7.920      2.932      5.131
REMARK INTER + INTRA:         -11.568
REMARK INTER:                 -10.665
REMARK INTRA:                  -0.903
REMARK UNBOUND:                -1.101
REMARK  Name = 
REMARK  7 active torsions:
REMARK  status: ('A' for Active; 'I' for Inactive)
REMARK    1  A    between atoms: C_1  and  N_2
REMARK    2  A    between atoms: C_4  and  C_5
REMARK    3  A    between atoms: C_6  and  C_7
REMARK    4  A    between atoms: N_9  and  C_10
REMARK    5  A    between atoms: C_10  and  C_11
REMARK    6  A    between atoms: C_11  and  C_12
REMARK    7  A    between atoms: C_12  and  O_13
REMARK                            x       y       z     vdW  Elec       q    Type
REMARK                         _______ _______ _______ _____ _____    ______ ____
ROOT
ATOM      1  C   UNL     1      21.696   0.221  53.462  0.00  0.00    +0.000 C 
ATOM      2  C   UNL     1      20.457   0.275  52.952  0.00  0.00    +0.000 C 
ATOM      3  C   UNL     1      19.693  -0.857  53.517  0.00  0.00    +0.000 C 
ATOM      4  O   UNL     1      18.528  -1.134  53.302  0.00  0.00    +0.000 OA
ATOM      5  N   UNL     1      20.531  -1.533  54.331  0.00  0.00    +0.000 N 
ATOM      6  C   UNL     1      21.751  -0.955  54.351  0.00  0.00    +0.000 C 
ATOM      7  O   UNL     1      22.714  -1.348  54.987  0.00  0.00    +0.000 OA
ATOM      8  H   UNL     1      20.286  -2.338  54.841  0.00  0.00    +0.000 HD
ENDROOT
BRANCH   1  12
ATOM      9  C   UNL     1      24.211   4.372  52.712  0.00  0.00    +0.000 C 
ATOM     10  N   UNL     1      23.913   2.966  52.862  0.00  0.00    +0.000 N 
ATOM     11  C   UNL     1      22.674   2.461  53.157  0.00  0.00    +0.000 A 
ATOM     12  C   UNL     1      22.786   1.090  53.220  0.00  0.00    +0.000 A 
ATOM     13  C   UNL     1      24.143   0.746  52.959  0.00  0.00    +0.000 A 
ATOM     14  C   UNL     1      24.863  -0.467  52.887  0.00  0.00    +0.000 A 
ATOM     15  C   UNL     1      26.226  -0.448  52.574  0.00  0.00    +0.000 A 
ATOM     16  C   UNL     1      26.881   0.756  52.336  0.00  0.00    +0.000 A 
ATOM     17  C   UNL     1      26.197   1.972  52.410  0.00  0.00    +0.000 A 
ATOM     18  C   UNL     1      24.829   1.944  52.724  0.00  0.00    +0.000 A 
ENDBRANCH   1  12
BRANCH   2  19
ATOM     19  C   UNL     1      19.930   1.180  52.000  0.00  0.00    +0.000 A 
ATOM     20  C   UNL     1      18.881   2.045  52.213  0.00  0.00    +0.000 A 
ATOM     21  N   UNL     1      18.704   2.776  51.062  0.00  0.00    +0.000 N 
ATOM     22  C   UNL     1      19.569   2.333  50.079  0.00  0.00    +0.000 A 
ATOM     23  C   UNL     1      19.715   2.692  48.728  0.00  0.00    +0.000 A 
ATOM     24  C   UNL     1      20.757   2.110  47.996  0.00  0.00    +0.000 A 
ATOM     25  C   UNL     1      21.623   1.196  48.584  0.00  0.00    +0.000 A 
ATOM     26  C   UNL     1      21.443   0.807  49.912  0.00  0.00    +0.000 A 
ATOM     27  C   UNL     1      20.395   1.370  50.670  0.00  0.00    +0.000 A 
BRANCH  21  28
ATOM     28  C   UNL     1      17.746   3.861  50.931  0.00  0.00    +0.000 C 
BRANCH  28  29
ATOM     29  C   UNL     1      16.283   3.417  50.899  0.00  0.00    +0.000 C 
BRANCH  29  30
ATOM     30  C   UNL     1      15.558   3.564  52.232  0.00  0.00    +0.000 C 
BRANCH  30  31
ATOM     31  O   UNL     1      16.179   4.599  52.991  0.00  0.00    +0.000 OA
ATOM     32  H   UNL     1      16.158   5.427  52.485  0.00  0.00    +0.000 HD
ENDBRANCH  30  31
ENDBRANCH  29  30
ENDBRANCH  28  29
ENDBRANCH  21  28
ENDBRANCH   2  19
TORSDOF 6
ENDMDL
