MODEL 1
REMARK VINA RESULT:    -6.970      0.000      0.000
REMARK INTER + INTRA:         -15.318
REMARK INTER:                 -12.675
REMARK INTRA:                  -2.644
REMARK UNBOUND:                -2.644
REMARK  Name = 
REMARK  17 active torsions:
REMARK  status: ('A' for Active; 'I' for Inactive)
REMARK    1  A    between atoms: C_1  and  O_2
REMARK    2  A    between atoms: O_2  and  C_3
REMARK    3  A    between atoms: C_3  and  C_5
REMARK    4  A    between atoms: C_5  and  C_6
REMARK    5  A    between atoms: C_6  and  C_7
REMARK    6  A    between atoms: C_8  and  C_9
REMARK    7  A    between atoms: C_9  and  C_10
REMARK    8  A    between atoms: C_10  and  C_11
REMARK    9  A    between atoms: C_15  and  O_16
REMARK   10  A    between atoms: C_17  and  C_18
REMARK   11  A    between atoms: C_19  and  C_20
REMARK   12  A    between atoms: C_20  and  C_21
REMARK   13  A    between atoms: C_21  and  C_22
REMARK   14  A    between atoms: C_21  and  O_23
REMARK   15  A    between atoms: C_21  and  C_24
REMARK   16  A    between atoms: C_24  and  C_25
REMARK   17  A    between atoms: C_25  and  C_26
REMARK                            x       y       z     vdW  Elec       q    Type
REMARK                         _______ _______ _______ _____ _____    ______ ____
ROOT
ATOM      1  C   UNL     1      26.289   0.097  52.372  0.00  0.00    +0.000 C 
ATOM      2  C   UNL     1      27.396  -0.413  53.277  0.00  0.00    +0.000 C 
ATOM      3  O   UNL     1      28.241  -1.228  52.922  0.00  0.00    +0.000 OA
ATOM      4  C   UNL     1      27.331   0.123  54.674  0.00  0.00    +0.000 C 
ATOM      5  C   UNL     1      26.233   1.172  54.556  0.00  0.00    +0.000 C 
ATOM      6  C   UNL     1      25.316   0.685  53.408  0.00  0.00    +0.000 C 
ENDROOT
BRANCH   5   7
ATOM      7  O   UNL     1      26.790   2.442  54.240  0.00  0.00    +0.000 OA
ATOM      8  H   UNL     1      26.308   2.829  53.491  0.00  0.00    +0.000 HD
ENDBRANCH   5   7
BRANCH   6   9
ATOM      9  C   UNL     1      24.318  -0.343  53.913  0.00  0.00    +0.000 C 
ATOM     10  C   UNL     1      23.248  -0.724  53.189  0.00  0.00    +0.000 C 
BRANCH  10  11
ATOM     11  C   UNL     1      22.063  -1.444  53.771  0.00  0.00    +0.000 C 
BRANCH  11  12
ATOM     12  C   UNL     1      20.720  -0.641  53.713  0.00  0.00    +0.000 C 
ATOM     13  C   UNL     1      20.800   0.487  54.762  0.00  0.00    +0.000 C 
BRANCH  12  14
ATOM     14  O   UNL     1      19.634  -1.498  54.102  0.00  0.00    +0.000 OA
ATOM     15  H   UNL     1      19.484  -2.163  53.412  0.00  0.00    +0.000 HD
ENDBRANCH  12  14
BRANCH  12  16
ATOM     16  C   UNL     1      20.365  -0.027  52.320  0.00  0.00    +0.000 C 
BRANCH  16  17
ATOM     17  C   UNL     1      20.440   1.501  52.210  0.00  0.00    +0.000 C 
BRANCH  17  18
ATOM     18  C   UNL     1      20.889   1.997  50.837  0.00  0.00    +0.000 C 
ATOM     19  C   UNL     1      20.284   1.346  49.576  0.00  0.00    +0.000 C 
ATOM     20  C   UNL     1      21.703   1.184  49.003  0.00  0.00    +0.000 C 
ATOM     21  C   UNL     1      22.272   1.439  50.403  0.00  0.00    +0.000 C 
ENDBRANCH  17  18
ENDBRANCH  16  17
ENDBRANCH  12  16
ENDBRANCH  11  12
ENDBRANCH  10  11
ENDBRANCH   6   9
BRANCH   1  22
ATOM     22  C   UNL     1      26.799   1.162  51.390  0.00  0.00    +0.000 C 
BRANCH  22  23
ATOM     23  C   UNL     1      25.779   2.271  51.129  0.00  0.00    +0.000 C 
BRANCH  23  25
ATOM     24  C   UNL     1      25.526   4.167  49.462  0.00  0.00    +0.000 C 
ATOM     25  C   UNL     1      26.267   3.232  50.080  0.00  0.00    +0.000 C 
BRANCH  24  26
ATOM     26  C   UNL     1      24.078   4.490  49.723  0.00  0.00    +0.000 C 
BRANCH  26  27
ATOM     27  C   UNL     1      23.901   5.585  50.772  0.00  0.00    +0.000 C 
BRANCH  27  28
ATOM     28  C   UNL     1      22.656   5.372  51.580  0.00  0.00    +0.000 C 
ATOM     29  O   UNL     1      22.555   4.631  52.551  0.00  0.00    +0.000 OA
BRANCH  28  31
ATOM     30  C   UNL     1      21.977   7.425  50.663  0.00  0.00    +0.000 C 
ATOM     31  O   UNL     1      21.630   6.092  51.041  0.00  0.00    +0.000 OA
ENDBRANCH  28  31
ENDBRANCH  27  28
ENDBRANCH  26  27
ENDBRANCH  24  26
ENDBRANCH  23  25
ENDBRANCH  22  23
ENDBRANCH   1  22
TORSDOF 15
ENDMDL
MODEL 2
REMARK VINA RESULT:    -6.895      1.764      6.094
REMARK INTER + INTRA:         -15.181
REMARK INTER:                 -12.854
REMARK INTRA:                  -2.327
REMARK UNBOUND:                -2.644
REMARK  Name = 
REMARK  17 active torsions:
REMARK  status: ('A' for Active; 'I' for Inactive)
REMARK    1  A    between atoms: C_1  and  O_2
REMARK    2  A    between atoms: O_2  and  C_3
REMARK    3  A    between atoms: C_3  and  C_5
REMARK    4  A    between atoms: C_5  and  C_6
REMARK    5  A    between atoms: C_6  and  C_7
REMARK    6  A    between atoms: C_8  and  C_9
REMARK    7  A    between atoms: C_9  and  C_10
REMARK    8  A    between atoms: C_10  and  C_11
REMARK    9  A    between atoms: C_15  and  O_16
REMARK   10  A    between atoms: C_17  and  C_18
REMARK   11  A    between atoms: C_19  and  C_20
REMARK   12  A    between atoms: C_20  and  C_21
REMARK   13  A    between atoms: C_21  and  C_22
REMARK   14  A    between atoms: C_21  and  O_23
REMARK   15  A    between atoms: C_21  and  C_24
REMARK   16  A    between atoms: C_24  and  C_25
REMARK   17  A    between atoms: C_25  and  C_26
REMARK                            x       y       z     vdW  Elec       q    Type
REMARK                         _______ _______ _______ _____ _____    ______ ____
ROOT
ATOM      1  C   UNL     1      23.931   3.286  50.143  0.00  0.00    +0.000 C 
ATOM      2  C   UNL     1      23.244   4.482  50.777  0.00  0.00    +0.000 C 
ATOM      3  O   UNL     1      23.554   4.941  51.871  0.00  0.00    +0.000 OA
ATOM      4  C   UNL     1      22.102   5.022  49.970  0.00  0.00    +0.000 C 
ATOM      5  C   UNL     1      22.230   4.228  48.677  0.00  0.00    +0.000 C 
ATOM      6  C   UNL     1      22.896   2.889  49.077  0.00  0.00    +0.000 C 
ENDROOT
BRANCH   5   7
ATOM      7  O   UNL     1      23.043   4.926  47.742  0.00  0.00    +0.000 OA
ATOM      8  H   UNL     1      23.953   4.970  48.075  0.00  0.00    +0.000 HD
ENDBRANCH   5   7
BRANCH   6   9
ATOM      9  C   UNL     1      21.863   1.910  49.610  0.00  0.00    +0.000 C 
ATOM     10  C   UNL     1      21.990   1.313  50.811  0.00  0.00    +0.000 C 
BRANCH  10  11
ATOM     11  C   UNL     1      21.209   0.094  51.221  0.00  0.00    +0.000 C 
BRANCH  11  12
ATOM     12  C   UNL     1      20.263   0.310  52.449  0.00  0.00    +0.000 C 
ATOM     13  C   UNL     1      18.808   0.219  51.945  0.00  0.00    +0.000 C 
BRANCH  12  14
ATOM     14  O   UNL     1      20.445   1.639  52.964  0.00  0.00    +0.000 OA
ATOM     15  H   UNL     1      21.291   1.690  53.435  0.00  0.00    +0.000 HD
ENDBRANCH  12  14
BRANCH  12  16
ATOM     16  C   UNL     1      20.462  -0.689  53.634  0.00  0.00    +0.000 C 
BRANCH  16  17
ATOM     17  C   UNL     1      21.572  -0.346  54.635  0.00  0.00    +0.000 C 
BRANCH  17  18
ATOM     18  C   UNL     1      22.889  -1.070  54.364  0.00  0.00    +0.000 C 
ATOM     19  C   UNL     1      23.908  -1.217  55.513  0.00  0.00    +0.000 C 
ATOM     20  C   UNL     1      25.013  -0.709  54.571  0.00  0.00    +0.000 C 
ATOM     21  C   UNL     1      23.931  -0.194  53.616  0.00  0.00    +0.000 C 
ENDBRANCH  17  18
ENDBRANCH  16  17
ENDBRANCH  12  16
ENDBRANCH  11  12
ENDBRANCH  10  11
ENDBRANCH   6   9
BRANCH   1  22
ATOM     22  C   UNL     1      25.282   3.668  49.520  0.00  0.00    +0.000 C 
BRANCH  22  23
ATOM     23  C   UNL     1      26.470   3.351  50.429  0.00  0.00    +0.000 C 
BRANCH  23  25
ATOM     24  C   UNL     1      26.805   1.461  52.087  0.00  0.00    +0.000 C 
ATOM     25  C   UNL     1      26.458   1.914  50.872  0.00  0.00    +0.000 C 
BRANCH  24  26
ATOM     26  C   UNL     1      27.222   2.289  53.275  0.00  0.00    +0.000 C 
BRANCH  26  27
ATOM     27  C   UNL     1      28.684   2.070  53.659  0.00  0.00    +0.000 C 
BRANCH  27  28
ATOM     28  C   UNL     1      28.910   0.684  54.182  0.00  0.00    +0.000 C 
ATOM     29  O   UNL     1      28.415   0.217  55.201  0.00  0.00    +0.000 OA
BRANCH  28  31
ATOM     30  C   UNL     1      29.929  -1.366  53.656  0.00  0.00    +0.000 C 
ATOM     31  O   UNL     1      29.795   0.028  53.377  0.00  0.00    +0.000 OA
ENDBRANCH  28  31
ENDBRANCH  27  28
ENDBRANCH  26  27
ENDBRANCH  24  26
ENDBRANCH  23  25
ENDBRANCH  22  23
ENDBRANCH   1  22
TORSDOF 15
ENDMDL
MODEL 3
REMARK VINA RESULT:    -6.814      1.712      3.151
REMARK INTER + INTRA:         -15.034
REMARK INTER:                 -11.478
REMARK INTRA:                  -3.555
REMARK UNBOUND:                -2.644
REMARK  Name = 
REMARK  17 active torsions:
REMARK  status: ('A' for Active; 'I' for Inactive)
REMARK    1  A    between atoms: C_1  and  O_2
REMARK    2  A    between atoms: O_2  and  C_3
REMARK    3  A    between atoms: C_3  and  C_5
REMARK    4  A    between atoms: C_5  and  C_6
REMARK    5  A    between atoms: C_6  and  C_7
REMARK    6  A    between atoms: C_8  and  C_9
REMARK    7  A    between atoms: C_9  and  C_10
REMARK    8  A    between atoms: C_10  and  C_11
REMARK    9  A    between atoms: C_15  and  O_16
REMARK   10  A    between atoms: C_17  and  C_18
REMARK   11  A    between atoms: C_19  and  C_20
REMARK   12  A    between atoms: C_20  and  C_21
REMARK   13  A    between atoms: C_21  and  C_22
REMARK   14  A    between atoms: C_21  and  O_23
REMARK   15  A    between atoms: C_21  and  C_24
REMARK   16  A    between atoms: C_24  and  C_25
REMARK   17  A    between atoms: C_25  and  C_26
REMARK                            x       y       z     vdW  Elec       q    Type
REMARK                         _______ _______ _______ _____ _____    ______ ____
ROOT
ATOM      1  C   UNL     1      25.676   1.870  51.521  0.00  0.00    +0.000 C 
ATOM      2  C   UNL     1      26.142   0.610  52.228  0.00  0.00    +0.000 C 
ATOM      3  O   UNL     1      26.468  -0.415  51.640  0.00  0.00    +0.000 OA
ATOM      4  C   UNL     1      26.114   0.708  53.723  0.00  0.00    +0.000 C 
ATOM      5  C   UNL     1      25.796   2.182  53.934  0.00  0.00    +0.000 C 
ATOM      6  C   UNL     1      24.996   2.617  52.682  0.00  0.00    +0.000 C 
ENDROOT
BRANCH   5   7
ATOM      7  O   UNL     1      26.994   2.939  54.043  0.00  0.00    +0.000 OA
ATOM      8  H   UNL     1      27.254   3.001  54.977  0.00  0.00    +0.000 HD
ENDBRANCH   5   7
BRANCH   6   9
ATOM      9  C   UNL     1      23.528   2.251  52.824  0.00  0.00    +0.000 C 
ATOM     10  C   UNL     1      22.670   2.299  51.788  0.00  0.00    +0.000 C 
BRANCH  10  11
ATOM     11  C   UNL     1      21.174   2.300  51.944  0.00  0.00    +0.000 C 
BRANCH  11  12
ATOM     12  C   UNL     1      20.425   1.256  51.050  0.00  0.00    +0.000 C 
ATOM     13  C   UNL     1      21.399   0.796  49.946  0.00  0.00    +0.000 C 
BRANCH  12  14
ATOM     14  O   UNL     1      19.320   1.896  50.392  0.00  0.00    +0.000 OA
ATOM     15  H   UNL     1      19.561   2.095  49.474  0.00  0.00    +0.000 HD
ENDBRANCH  12  14
BRANCH  12  16
ATOM     16  C   UNL     1      19.869   0.004  51.802  0.00  0.00    +0.000 C 
BRANCH  16  17
ATOM     17  C   UNL     1      19.937   0.044  53.333  0.00  0.00    +0.000 C 
BRANCH  17  18
ATOM     18  C   UNL     1      20.907  -0.973  53.932  0.00  0.00    +0.000 C 
ATOM     19  C   UNL     1      21.739  -0.572  55.167  0.00  0.00    +0.000 C 
ATOM     20  C   UNL     1      23.001  -1.102  54.464  0.00  0.00    +0.000 C 
ATOM     21  C   UNL     1      22.235  -1.099  53.137  0.00  0.00    +0.000 C 
ENDBRANCH  17  18
ENDBRANCH  16  17
ENDBRANCH  12  16
ENDBRANCH  11  12
ENDBRANCH  10  11
ENDBRANCH   6   9
BRANCH   1  22
ATOM     22  C   UNL     1      26.851   2.666  50.935  0.00  0.00    +0.000 C 
BRANCH  22  23
ATOM     23  C   UNL     1      26.633   3.066  49.476  0.00  0.00    +0.000 C 
BRANCH  23  25
ATOM     24  C   UNL     1      25.351   5.236  49.181  0.00  0.00    +0.000 C 
ATOM     25  C   UNL     1      26.500   4.558  49.327  0.00  0.00    +0.000 C 
BRANCH  24  26
ATOM     26  C   UNL     1      23.957   4.665  49.190  0.00  0.00    +0.000 C 
BRANCH  26  27
ATOM     27  C   UNL     1      23.003   5.458  50.081  0.00  0.00    +0.000 C 
BRANCH  27  28
ATOM     28  C   UNL     1      21.584   5.325  49.618  0.00  0.00    +0.000 C 
ATOM     29  O   UNL     1      20.632   5.971  50.040  0.00  0.00    +0.000 OA
BRANCH  28  31
ATOM     30  C   UNL     1      20.233   4.253  48.022  0.00  0.00    +0.000 C 
ATOM     31  O   UNL     1      21.497   4.335  48.683  0.00  0.00    +0.000 OA
ENDBRANCH  28  31
ENDBRANCH  27  28
ENDBRANCH  26  27
ENDBRANCH  24  26
ENDBRANCH  23  25
ENDBRANCH  22  23
ENDBRANCH   1  22
TORSDOF 15
ENDMDL
MODEL 4
REMARK VINA RESULT:    -6.701      1.839      3.556
REMARK INTER + INTRA:         -14.829
REMARK INTER:                 -11.905
REMARK INTRA:                  -2.924
REMARK UNBOUND:                -2.644
REMARK  Name = 
REMARK  17 active torsions:
REMARK  status: ('A' for Active; 'I' for Inactive)
REMARK    1  A    between atoms: C_1  and  O_2
REMARK    2  A    between atoms: O_2  and  C_3
REMARK    3  A    between atoms: C_3  and  C_5
REMARK    4  A    between atoms: C_5  and  C_6
REMARK    5  A    between atoms: C_6  and  C_7
REMARK    6  A    between atoms: C_8  and  C_9
REMARK    7  A    between atoms: C_9  and  C_10
REMARK    8  A    between atoms: C_10  and  C_11
REMARK    9  A    between atoms: C_15  and  O_16
REMARK   10  A    between atoms: C_17  and  C_18
REMARK   11  A    between atoms: C_19  and  C_20
REMARK   12  A    between atoms: C_20  and  C_21
REMARK   13  A    between atoms: C_21  and  C_22
REMARK   14  A    between atoms: C_21  and  O_23
REMARK   15  A    between atoms: C_21  and  C_24
REMARK   16  A    between atoms: C_24  and  C_25
REMARK   17  A    between atoms: C_25  and  C_26
REMARK                            x       y       z     vdW  Elec       q    Type
REMARK                         _______ _______ _______ _____ _____    ______ ____
ROOT
ATOM      1  C   UNL     1      25.509   2.120  51.281  0.00  0.00    +0.000 C 
ATOM      2  C   UNL     1      25.405   2.077  52.795  0.00  0.00    +0.000 C 
ATOM      3  O   UNL     1      26.156   1.419  53.507  0.00  0.00    +0.000 OA
ATOM      4  C   UNL     1      24.259   2.868  53.346  0.00  0.00    +0.000 C 
ATOM      5  C   UNL     1      23.752   3.592  52.106  0.00  0.00    +0.000 C 
ATOM      6  C   UNL     1      24.123   2.678  50.913  0.00  0.00    +0.000 C 
ENDROOT
BRANCH   5   7
ATOM      7  O   UNL     1      24.386   4.858  51.975  0.00  0.00    +0.000 OA
ATOM      8  H   UNL     1      24.280   5.180  51.066  0.00  0.00    +0.000 HD
ENDBRANCH   5   7
BRANCH   6   9
ATOM      9  C   UNL     1      23.088   1.581  50.730  0.00  0.00    +0.000 C 
ATOM     10  C   UNL     1      21.771   1.843  50.631  0.00  0.00    +0.000 C 
BRANCH  10  11
ATOM     11  C   UNL     1      20.699   0.803  50.810  0.00  0.00    +0.000 C 
BRANCH  11  12
ATOM     12  C   UNL     1      19.886   0.928  52.142  0.00  0.00    +0.000 C 
ATOM     13  C   UNL     1      18.718  -0.077  52.078  0.00  0.00    +0.000 C 
BRANCH  12  14
ATOM     14  O   UNL     1      19.306   2.240  52.226  0.00  0.00    +0.000 OA
ATOM     15  H   UNL     1      18.428   2.179  52.634  0.00  0.00    +0.000 HD
ENDBRANCH  12  14
BRANCH  12  16
ATOM     16  C   UNL     1      20.704   0.686  53.452  0.00  0.00    +0.000 C 
BRANCH  16  17
ATOM     17  C   UNL     1      20.622  -0.721  54.056  0.00  0.00    +0.000 C 
BRANCH  17  18
ATOM     18  C   UNL     1      21.966  -1.447  54.107  0.00  0.00    +0.000 C 
ATOM     19  C   UNL     1      22.794  -1.389  55.407  0.00  0.00    +0.000 C 
ATOM     20  C   UNL     1      24.032  -1.006  54.578  0.00  0.00    +0.000 C 
ATOM     21  C   UNL     1      23.111  -0.672  53.400  0.00  0.00    +0.000 C 
ENDBRANCH  17  18
ENDBRANCH  16  17
ENDBRANCH  12  16
ENDBRANCH  11  12
ENDBRANCH  10  11
ENDBRANCH   6   9
BRANCH   1  22
ATOM     22  C   UNL     1      26.644   3.041  50.811  0.00  0.00    +0.000 C 
BRANCH  22  23
ATOM     23  C   UNL     1      26.542   3.407  49.330  0.00  0.00    +0.000 C 
BRANCH  23  25
ATOM     24  C   UNL     1      25.905   5.806  48.804  0.00  0.00    +0.000 C 
ATOM     25  C   UNL     1      26.819   4.869  49.104  0.00  0.00    +0.000 C 
BRANCH  24  26
ATOM     26  C   UNL     1      24.416   5.611  48.686  0.00  0.00    +0.000 C 
BRANCH  26  27
ATOM     27  C   UNL     1      23.646   6.930  48.729  0.00  0.00    +0.000 C 
BRANCH  27  28
ATOM     28  C   UNL     1      23.566   7.471  50.125  0.00  0.00    +0.000 C 
ATOM     29  O   UNL     1      24.299   8.330  50.599  0.00  0.00    +0.000 OA
BRANCH  28  31
ATOM     30  C   UNL     1      21.270   6.999  50.271  0.00  0.00    +0.000 C 
ATOM     31  O   UNL     1      22.580   6.825  50.812  0.00  0.00    +0.000 OA
ENDBRANCH  28  31
ENDBRANCH  27  28
ENDBRANCH  26  27
ENDBRANCH  24  26
ENDBRANCH  23  25
ENDBRANCH  22  23
ENDBRANCH   1  22
TORSDOF 15
ENDMDL
MODEL 5
REMARK VINA RESULT:    -6.679      2.328      3.563
REMARK INTER + INTRA:         -14.789
REMARK INTER:                 -11.509
REMARK INTRA:                  -3.280
REMARK UNBOUND:                -2.644
REMARK  Name = 
REMARK  17 active torsions:
REMARK  status: ('A' for Active; 'I' for Inactive)
REMARK    1  A    between atoms: C_1  and  O_2
REMARK    2  A    between atoms: O_2  and  C_3
REMARK    3  A    between atoms: C_3  and  C_5
REMARK    4  A    between atoms: C_5  and  C_6
REMARK    5  A    between atoms: C_6  and  C_7
REMARK    6  A    between atoms: C_8  and  C_9
REMARK    7  A    between atoms: C_9  and  C_10
REMARK    8  A    between atoms: C_10  and  C_11
REMARK    9  A    between atoms: C_15  and  O_16
REMARK   10  A    between atoms: C_17  and  C_18
REMARK   11  A    between atoms: C_19  and  C_20
REMARK   12  A    between atoms: C_20  and  C_21
REMARK   13  A    between atoms: C_21  and  C_22
REMARK   14  A    between atoms: C_21  and  O_23
REMARK   15  A    between atoms: C_21  and  C_24
REMARK   16  A    between atoms: C_24  and  C_25
REMARK   17  A    between atoms: C_25  and  C_26
REMARK                            x       y       z     vdW  Elec       q    Type
REMARK                         _______ _______ _______ _____ _____    ______ ____
ROOT
ATOM      1  C   UNL     1      25.528   1.331  51.843  0.00  0.00    +0.000 C 
ATOM      2  C   UNL     1      25.858   0.226  52.830  0.00  0.00    +0.000 C 
ATOM      3  O   UNL     1      25.953  -0.956  52.518  0.00  0.00    +0.000 OA
ATOM      4  C   UNL     1      26.000   0.700  54.244  0.00  0.00    +0.000 C 
ATOM      5  C   UNL     1      25.945   2.212  54.075  0.00  0.00    +0.000 C 
ATOM      6  C   UNL     1      25.100   2.456  52.801  0.00  0.00    +0.000 C 
ENDROOT
BRANCH   5   7
ATOM      7  O   UNL     1      27.254   2.743  53.909  0.00  0.00    +0.000 OA
ATOM      8  H   UNL     1      27.899   2.017  53.908  0.00  0.00    +0.000 HD
ENDBRANCH   5   7
BRANCH   6   9
ATOM      9  C   UNL     1      23.615   2.410  53.120  0.00  0.00    +0.000 C 
ATOM     10  C   UNL     1      22.701   3.081  52.394  0.00  0.00    +0.000 C 
BRANCH  10  11
ATOM     11  C   UNL     1      21.301   3.358  52.868  0.00  0.00    +0.000 C 
BRANCH  11  12
ATOM     12  C   UNL     1      20.175   2.748  51.967  0.00  0.00    +0.000 C 
ATOM     13  C   UNL     1      20.717   2.670  50.525  0.00  0.00    +0.000 C 
BRANCH  12  14
ATOM     14  O   UNL     1      19.048   3.640  51.942  0.00  0.00    +0.000 OA
ATOM     15  H   UNL     1      19.352   4.539  51.743  0.00  0.00    +0.000 HD
ENDBRANCH  12  14
BRANCH  12  16
ATOM     16  C   UNL     1      19.657   1.339  52.401  0.00  0.00    +0.000 C 
BRANCH  16  17
ATOM     17  C   UNL     1      20.574   0.150  52.088  0.00  0.00    +0.000 C 
BRANCH  17  18
ATOM     18  C   UNL     1      20.929  -0.690  53.313  0.00  0.00    +0.000 C 
ATOM     19  C   UNL     1      21.146   0.019  54.666  0.00  0.00    +0.000 C 
ATOM     20  C   UNL     1      22.458  -0.765  54.844  0.00  0.00    +0.000 C 
ATOM     21  C   UNL     1      22.421  -1.120  53.354  0.00  0.00    +0.000 C 
ENDBRANCH  17  18
ENDBRANCH  16  17
ENDBRANCH  12  16
ENDBRANCH  11  12
ENDBRANCH  10  11
ENDBRANCH   6   9
BRANCH   1  22
ATOM     22  C   UNL     1      26.748   1.727  50.999  0.00  0.00    +0.000 C 
BRANCH  22  23
ATOM     23  C   UNL     1      26.612   3.110  50.363  0.00  0.00    +0.000 C 
BRANCH  23  25
ATOM     24  C   UNL     1      24.569   4.277  49.413  0.00  0.00    +0.000 C 
ATOM     25  C   UNL     1      25.374   3.207  49.514  0.00  0.00    +0.000 C 
BRANCH  24  26
ATOM     26  C   UNL     1      24.760   5.617  50.077  0.00  0.00    +0.000 C 
BRANCH  26  27
ATOM     27  C   UNL     1      25.162   6.710  49.089  0.00  0.00    +0.000 C 
BRANCH  27  28
ATOM     28  C   UNL     1      26.652   6.838  48.993  0.00  0.00    +0.000 C 
ATOM     29  O   UNL     1      27.412   5.997  48.527  0.00  0.00    +0.000 OA
BRANCH  28  31
ATOM     30  C   UNL     1      25.976   8.886  49.923  0.00  0.00    +0.000 C 
ATOM     31  O   UNL     1      27.048   8.019  49.550  0.00  0.00    +0.000 OA
ENDBRANCH  28  31
ENDBRANCH  27  28
ENDBRANCH  26  27
ENDBRANCH  24  26
ENDBRANCH  23  25
ENDBRANCH  22  23
ENDBRANCH   1  22
TORSDOF 15
ENDMDL
MODEL 6
REMARK VINA RESULT:    -6.650      3.966      9.415
REMARK INTER + INTRA:         -14.736
REMARK INTER:                 -12.509
REMARK INTRA:                  -2.227
REMARK UNBOUND:                -2.644
REMARK  Name = 
REMARK  17 active torsions:
REMARK  status: ('A' for Active; 'I' for Inactive)
REMARK    1  A    between atoms: C_1  and  O_2
REMARK    2  A    between atoms: O_2  and  C_3
REMARK    3  A    between atoms: C_3  and  C_5
REMARK    4  A    between atoms: C_5  and  C_6
REMARK    5  A    between atoms: C_6  and  C_7
REMARK    6  A    between atoms: C_8  and  C_9
REMARK    7  A    between atoms: C_9  and  C_10
REMARK    8  A    between atoms: C_10  and  C_11
REMARK    9  A    between atoms: C_15  and  O_16
REMARK   10  A    between atoms: C_17  and  C_18
REMARK   11  A    between atoms: C_19  and  C_20
REMARK   12  A    between atoms: C_20  and  C_21
REMARK   13  A    between atoms: C_21  and  C_22
REMARK   14  A    between atoms: C_21  and  O_23
REMARK   15  A    between atoms: C_21  and  C_24
REMARK   16  A    between atoms: C_24  and  C_25
REMARK   17  A    between atoms: C_25  and  C_26
REMARK                            x       y       z     vdW  Elec       q    Type
REMARK                         _______ _______ _______ _____ _____    ______ ____
ROOT
ATOM      1  C   UNL     1      24.592   5.017  49.370  0.00  0.00    +0.000 C 
ATOM      2  C   UNL     1      23.528   6.047  49.037  0.00  0.00    +0.000 C 
ATOM      3  O   UNL     1      22.557   5.813  48.325  0.00  0.00    +0.000 OA
ATOM      4  C   UNL     1      23.801   7.405  49.607  0.00  0.00    +0.000 C 
ATOM      5  C   UNL     1      25.002   7.134  50.502  0.00  0.00    +0.000 C 
ATOM      6  C   UNL     1      25.730   5.926  49.864  0.00  0.00    +0.000 C 
ENDROOT
BRANCH   5   7
ATOM      7  O   UNL     1      24.577   6.815  51.821  0.00  0.00    +0.000 OA
ATOM      8  H   UNL     1      24.925   5.943  52.071  0.00  0.00    +0.000 HD
ENDBRANCH   5   7
BRANCH   6   9
ATOM      9  C   UNL     1      26.639   6.379  48.733  0.00  0.00    +0.000 C 
ATOM     10  C   UNL     1      27.846   5.823  48.514  0.00  0.00    +0.000 C 
BRANCH  10  11
ATOM     11  C   UNL     1      28.912   6.457  47.663  0.00  0.00    +0.000 C 
BRANCH  11  12
ATOM     12  C   UNL     1      30.304   6.605  48.367  0.00  0.00    +0.000 C 
ATOM     13  C   UNL     1      31.390   6.186  47.355  0.00  0.00    +0.000 C 
BRANCH  12  14
ATOM     14  O   UNL     1      30.381   5.687  49.469  0.00  0.00    +0.000 OA
ATOM     15  H   UNL     1      29.493   5.354  49.675  0.00  0.00    +0.000 HD
ENDBRANCH  12  14
BRANCH  12  16
ATOM     16  C   UNL     1      30.631   8.032  48.914  0.00  0.00    +0.000 C 
BRANCH  16  17
ATOM     17  C   UNL     1      30.186   9.214  48.043  0.00  0.00    +0.000 C 
BRANCH  17  18
ATOM     18  C   UNL     1      29.091  10.068  48.679  0.00  0.00    +0.000 C 
ATOM     19  C   UNL     1      28.245   9.467  49.820  0.00  0.00    +0.000 C 
ATOM     20  C   UNL     1      26.972   9.944  49.100  0.00  0.00    +0.000 C 
ATOM     21  C   UNL     1      27.797  10.147  47.825  0.00  0.00    +0.000 C 
ENDBRANCH  17  18
ENDBRANCH  16  17
ENDBRANCH  12  16
ENDBRANCH  11  12
ENDBRANCH  10  11
ENDBRANCH   6   9
BRANCH   1  22
ATOM     22  C   UNL     1      24.121   4.041  50.459  0.00  0.00    +0.000 C 
BRANCH  22  23
ATOM     23  C   UNL     1      24.780   2.666  50.354  0.00  0.00    +0.000 C 
BRANCH  23  25
ATOM     24  C   UNL     1      26.835   1.900  51.631  0.00  0.00    +0.000 C 
ATOM     25  C   UNL     1      26.229   2.717  50.754  0.00  0.00    +0.000 C 
BRANCH  24  26
ATOM     26  C   UNL     1      26.215   0.733  52.354  0.00  0.00    +0.000 C 
BRANCH  26  27
ATOM     27  C   UNL     1      27.258  -0.196  52.972  0.00  0.00    +0.000 C 
BRANCH  27  28
ATOM     28  C   UNL     1      27.383   0.028  54.449  0.00  0.00    +0.000 C 
ATOM     29  O   UNL     1      26.453   0.240  55.219  0.00  0.00    +0.000 OA
BRANCH  28  31
ATOM     30  C   UNL     1      29.604  -0.210  53.723  0.00  0.00    +0.000 C 
ATOM     31  O   UNL     1      28.700   0.012  54.807  0.00  0.00    +0.000 OA
ENDBRANCH  28  31
ENDBRANCH  27  28
ENDBRANCH  26  27
ENDBRANCH  24  26
ENDBRANCH  23  25
ENDBRANCH  22  23
ENDBRANCH   1  22
TORSDOF 15
ENDMDL
MODEL 7
REMARK VINA RESULT:    -6.636      3.038      4.548
REMARK INTER + INTRA:         -14.711
REMARK INTER:                 -12.553
REMARK INTRA:                  -2.158
REMARK UNBOUND:                -2.644
REMARK  Name = 
REMARK  17 active torsions:
REMARK  status: ('A' for Active; 'I' for Inactive)
REMARK    1  A    between atoms: C_1  and  O_2
REMARK    2  A    between atoms: O_2  and  C_3
REMARK    3  A    between atoms: C_3  and  C_5
REMARK    4  A    between atoms: C_5  and  C_6
REMARK    5  A    between atoms: C_6  and  C_7
REMARK    6  A    between atoms: C_8  and  C_9
REMARK    7  A    between atoms: C_9  and  C_10
REMARK    8  A    between atoms: C_10  and  C_11
REMARK    9  A    between atoms: C_15  and  O_16
REMARK   10  A    between atoms: C_17  and  C_18
REMARK   11  A    between atoms: C_19  and  C_20
REMARK   12  A    between atoms: C_20  and  C_21
REMARK   13  A    between atoms: C_21  and  C_22
REMARK   14  A    between atoms: C_21  and  O_23
REMARK   15  A    between atoms: C_21  and  C_24
REMARK   16  A    between atoms: C_24  and  C_25
REMARK   17  A    between atoms: C_25  and  C_26
REMARK                            x       y       z     vdW  Elec       q    Type
REMARK                         _______ _______ _______ _____ _____    ______ ____
ROOT
ATOM      1  C   UNL     1      25.524   2.271  51.277  0.00  0.00    +0.000 C 
ATOM      2  C   UNL     1      25.379   2.374  52.785  0.00  0.00    +0.000 C 
ATOM      3  O   UNL     1      26.125   1.809  53.577  0.00  0.00    +0.000 OA
ATOM      4  C   UNL     1      24.198   3.183  53.226  0.00  0.00    +0.000 C 
ATOM      5  C   UNL     1      23.709   3.769  51.908  0.00  0.00    +0.000 C 
ATOM      6  C   UNL     1      24.136   2.753  50.821  0.00  0.00    +0.000 C 
ENDROOT
BRANCH   5   7
ATOM      7  O   UNL     1      24.315   5.033  51.670  0.00  0.00    +0.000 OA
ATOM      8  H   UNL     1      24.145   5.620  52.424  0.00  0.00    +0.000 HD
ENDBRANCH   5   7
BRANCH   6   9
ATOM      9  C   UNL     1      23.134   1.616  50.719  0.00  0.00    +0.000 C 
ATOM     10  C   UNL     1      21.809   1.831  50.614  0.00  0.00    +0.000 C 
BRANCH  10  11
ATOM     11  C   UNL     1      20.770   0.773  50.871  0.00  0.00    +0.000 C 
BRANCH  11  12
ATOM     12  C   UNL     1      20.023   0.913  52.240  0.00  0.00    +0.000 C 
ATOM     13  C   UNL     1      18.933  -0.177  52.295  0.00  0.00    +0.000 C 
BRANCH  12  14
ATOM     14  O   UNL     1      19.349   2.181  52.288  0.00  0.00    +0.000 OA
ATOM     15  H   UNL     1      18.739   2.195  53.043  0.00  0.00    +0.000 HD
ENDBRANCH  12  14
BRANCH  12  16
ATOM     16  C   UNL     1      20.926   0.807  53.511  0.00  0.00    +0.000 C 
BRANCH  16  17
ATOM     17  C   UNL     1      20.885  -0.528  54.265  0.00  0.00    +0.000 C 
BRANCH  17  18
ATOM     18  C   UNL     1      22.205  -1.297  54.224  0.00  0.00    +0.000 C 
ATOM     19  C   UNL     1      23.064  -1.370  55.503  0.00  0.00    +0.000 C 
ATOM     20  C   UNL     1      24.295  -0.960  54.675  0.00  0.00    +0.000 C 
ATOM     21  C   UNL     1      23.358  -0.504  53.551  0.00  0.00    +0.000 C 
ENDBRANCH  17  18
ENDBRANCH  16  17
ENDBRANCH  12  16
ENDBRANCH  11  12
ENDBRANCH  10  11
ENDBRANCH   6   9
BRANCH   1  22
ATOM     22  C   UNL     1      26.649   3.173  50.749  0.00  0.00    +0.000 C 
BRANCH  22  23
ATOM     23  C   UNL     1      26.340   3.774  49.378  0.00  0.00    +0.000 C 
BRANCH  23  25
ATOM     24  C   UNL     1      27.563   5.795  48.451  0.00  0.00    +0.000 C 
ATOM     25  C   UNL     1      27.529   4.502  48.814  0.00  0.00    +0.000 C 
BRANCH  24  26
ATOM     26  C   UNL     1      26.446   6.799  48.582  0.00  0.00    +0.000 C 
BRANCH  26  27
ATOM     27  C   UNL     1      26.916   8.232  48.343  0.00  0.00    +0.000 C 
BRANCH  27  28
ATOM     28  C   UNL     1      27.670   8.765  49.524  0.00  0.00    +0.000 C 
ATOM     29  O   UNL     1      27.174   9.104  50.592  0.00  0.00    +0.000 OA
BRANCH  28  31
ATOM     30  C   UNL     1      29.261   9.302  47.881  0.00  0.00    +0.000 C 
ATOM     31  O   UNL     1      28.995   8.865  49.215  0.00  0.00    +0.000 OA
ENDBRANCH  28  31
ENDBRANCH  27  28
ENDBRANCH  26  27
ENDBRANCH  24  26
ENDBRANCH  23  25
ENDBRANCH  22  23
ENDBRANCH   1  22
TORSDOF 15
ENDMDL
MODEL 8
REMARK VINA RESULT:    -6.592      1.765      7.159
REMARK INTER + INTRA:         -14.630
REMARK INTER:                 -11.732
REMARK INTRA:                  -2.898
REMARK UNBOUND:                -2.644
REMARK  Name = 
REMARK  17 active torsions:
REMARK  status: ('A' for Active; 'I' for Inactive)
REMARK    1  A    between atoms: C_1  and  O_2
REMARK    2  A    between atoms: O_2  and  C_3
REMARK    3  A    between atoms: C_3  and  C_5
REMARK    4  A    between atoms: C_5  and  C_6
REMARK    5  A    between atoms: C_6  and  C_7
REMARK    6  A    between atoms: C_8  and  C_9
REMARK    7  A    between atoms: C_9  and  C_10
REMARK    8  A    between atoms: C_10  and  C_11
REMARK    9  A    between atoms: C_15  and  O_16
REMARK   10  A    between atoms: C_17  and  C_18
REMARK   11  A    between atoms: C_19  and  C_20
REMARK   12  A    between atoms: C_20  and  C_21
REMARK   13  A    between atoms: C_21  and  C_22
REMARK   14  A    between atoms: C_21  and  O_23
REMARK   15  A    between atoms: C_21  and  C_24
REMARK   16  A    between atoms: C_24  and  C_25
REMARK   17  A    between atoms: C_25  and  C_26
REMARK                            x       y       z     vdW  Elec       q    Type
REMARK                         _______ _______ _______ _____ _____    ______ ____
ROOT
ATOM      1  C   UNL     1      20.766   0.713  51.306  0.00  0.00    +0.000 C 
ATOM      2  C   UNL     1      19.567   1.285  50.572  0.00  0.00    +0.000 C 
ATOM      3  O   UNL     1      18.753   0.597  49.964  0.00  0.00    +0.000 OA
ATOM      4  C   UNL     1      19.494   2.781  50.603  0.00  0.00    +0.000 C 
ATOM      5  C   UNL     1      20.609   3.128  51.580  0.00  0.00    +0.000 C 
ATOM      6  C   UNL     1      21.634   1.973  51.466  0.00  0.00    +0.000 C 
ENDROOT
BRANCH   5   7
ATOM      7  O   UNL     1      20.102   3.212  52.906  0.00  0.00    +0.000 OA
ATOM      8  H   UNL     1      20.836   3.356  53.524  0.00  0.00    +0.000 HD
ENDBRANCH   5   7
BRANCH   6   9
ATOM      9  C   UNL     1      22.563   2.190  50.284  0.00  0.00    +0.000 C 
ATOM     10  C   UNL     1      23.746   2.823  50.404  0.00  0.00    +0.000 C 
BRANCH  10  11
ATOM     11  C   UNL     1      24.519   3.372  49.236  0.00  0.00    +0.000 C 
BRANCH  11  12
ATOM     12  C   UNL     1      25.524   4.516  49.601  0.00  0.00    +0.000 C 
ATOM     13  C   UNL     1      26.938   4.044  49.205  0.00  0.00    +0.000 C 
BRANCH  12  14
ATOM     14  O   UNL     1      25.530   4.709  51.025  0.00  0.00    +0.000 OA
ATOM     15  H   UNL     1      24.628   4.611  51.368  0.00  0.00    +0.000 HD
ENDBRANCH  12  14
BRANCH  12  16
ATOM     16  C   UNL     1      25.236   5.900  48.935  0.00  0.00    +0.000 C 
BRANCH  16  17
ATOM     17  C   UNL     1      23.890   6.041  48.213  0.00  0.00    +0.000 C 
BRANCH  17  18
ATOM     18  C   UNL     1      22.833   6.789  49.024  0.00  0.00    +0.000 C 
ATOM     19  C   UNL     1      23.153   7.184  50.480  0.00  0.00    +0.000 C 
ATOM     20  C   UNL     1      21.801   6.594  50.917  0.00  0.00    +0.000 C 
ATOM     21  C   UNL     1      21.711   5.865  49.572  0.00  0.00    +0.000 C 
ENDBRANCH  17  18
ENDBRANCH  16  17
ENDBRANCH  12  16
ENDBRANCH  11  12
ENDBRANCH  10  11
ENDBRANCH   6   9
BRANCH   1  22
ATOM     22  C   UNL     1      20.372   0.109  52.662  0.00  0.00    +0.000 C 
BRANCH  22  23
ATOM     23  C   UNL     1      21.473   0.234  53.715  0.00  0.00    +0.000 C 
BRANCH  23  25
ATOM     24  C   UNL     1      23.785  -0.751  53.363  0.00  0.00    +0.000 C 
ATOM     25  C   UNL     1      22.471  -0.887  53.604  0.00  0.00    +0.000 C 
BRANCH  24  26
ATOM     26  C   UNL     1      24.547   0.540  53.208  0.00  0.00    +0.000 C 
BRANCH  26  27
ATOM     27  C   UNL     1      26.005   0.318  52.811  0.00  0.00    +0.000 C 
BRANCH  27  28
ATOM     28  C   UNL     1      26.877   0.132  54.016  0.00  0.00    +0.000 C 
ATOM     29  O   UNL     1      26.548   0.356  55.175  0.00  0.00    +0.000 OA
BRANCH  28  31
ATOM     30  C   UNL     1      29.186   0.560  54.067  0.00  0.00    +0.000 C 
ATOM     31  O   UNL     1      28.118  -0.279  53.625  0.00  0.00    +0.000 OA
ENDBRANCH  28  31
ENDBRANCH  27  28
ENDBRANCH  26  27
ENDBRANCH  24  26
ENDBRANCH  23  25
ENDBRANCH  22  23
ENDBRANCH   1  22
TORSDOF 15
ENDMDL
MODEL 9
REMARK VINA RESULT:    -6.578      3.572      6.003
REMARK INTER + INTRA:         -14.605
REMARK INTER:                 -12.850
REMARK INTRA:                  -1.755
REMARK UNBOUND:                -2.644
REMARK  Name = 
REMARK  17 active torsions:
REMARK  status: ('A' for Active; 'I' for Inactive)
REMARK    1  A    between atoms: C_1  and  O_2
REMARK    2  A    between atoms: O_2  and  C_3
REMARK    3  A    between atoms: C_3  and  C_5
REMARK    4  A    between atoms: C_5  and  C_6
REMARK    5  A    between atoms: C_6  and  C_7
REMARK    6  A    between atoms: C_8  and  C_9
REMARK    7  A    between atoms: C_9  and  C_10
REMARK    8  A    between atoms: C_10  and  C_11
REMARK    9  A    between atoms: C_15  and  O_16
REMARK   10  A    between atoms: C_17  and  C_18
REMARK   11  A    between atoms: C_19  and  C_20
REMARK   12  A    between atoms: C_20  and  C_21
REMARK   13  A    between atoms: C_21  and  C_22
REMARK   14  A    between atoms: C_21  and  O_23
REMARK   15  A    between atoms: C_21  and  C_24
REMARK   16  A    between atoms: C_24  and  C_25
REMARK   17  A    between atoms: C_25  and  C_26
REMARK                            x       y       z     vdW  Elec       q    Type
REMARK                         _______ _______ _______ _____ _____    ______ ____
ROOT
ATOM      1  C   UNL     1      25.014   4.470  50.631  0.00  0.00    +0.000 C 
ATOM      2  C   UNL     1      23.844   4.516  51.597  0.00  0.00    +0.000 C 
ATOM      3  O   UNL     1      23.486   5.534  52.179  0.00  0.00    +0.000 OA
ATOM      4  C   UNL     1      23.196   3.185  51.828  0.00  0.00    +0.000 C 
ATOM      5  C   UNL     1      23.891   2.314  50.790  0.00  0.00    +0.000 C 
ATOM      6  C   UNL     1      25.284   2.956  50.576  0.00  0.00    +0.000 C 
ENDROOT
BRANCH   5   7
ATOM      7  O   UNL     1      23.157   2.308  49.572  0.00  0.00    +0.000 OA
ATOM      8  H   UNL     1      23.713   1.952  48.861  0.00  0.00    +0.000 HD
ENDBRANCH   5   7
BRANCH   6   9
ATOM      9  C   UNL     1      26.259   2.503  51.650  0.00  0.00    +0.000 C 
ATOM     10  C   UNL     1      26.825   1.282  51.640  0.00  0.00    +0.000 C 
BRANCH  10  11
ATOM     11  C   UNL     1      27.495   0.664  52.837  0.00  0.00    +0.000 C 
BRANCH  11  12
ATOM     12  C   UNL     1      26.642  -0.427  53.569  0.00  0.00    +0.000 C 
ATOM     13  C   UNL     1      26.470   0.017  55.036  0.00  0.00    +0.000 C 
BRANCH  12  14
ATOM     14  O   UNL     1      27.368  -1.666  53.589  0.00  0.00    +0.000 OA
ATOM     15  H   UNL     1      28.249  -1.519  53.968  0.00  0.00    +0.000 HD
ENDBRANCH  12  14
BRANCH  12  16
ATOM     16  C   UNL     1      25.237  -0.710  52.946  0.00  0.00    +0.000 C 
BRANCH  16  17
ATOM     17  C   UNL     1      24.035  -0.085  53.666  0.00  0.00    +0.000 C 
BRANCH  17  18
ATOM     18  C   UNL     1      22.727  -0.846  53.452  0.00  0.00    +0.000 C 
ATOM     19  C   UNL     1      21.509  -0.089  52.886  0.00  0.00    +0.000 C 
ATOM     20  C   UNL     1      20.643  -0.682  54.010  0.00  0.00    +0.000 C 
ATOM     21  C   UNL     1      21.922  -1.066  54.761  0.00  0.00    +0.000 C 
ENDBRANCH  17  18
ENDBRANCH  16  17
ENDBRANCH  12  16
ENDBRANCH  11  12
ENDBRANCH  10  11
ENDBRANCH   6   9
BRANCH   1  22
ATOM     22  C   UNL     1      24.641   5.038  49.254  0.00  0.00    +0.000 C 
BRANCH  22  23
ATOM     23  C   UNL     1      25.786   5.808  48.595  0.00  0.00    +0.000 C 
BRANCH  23  25
ATOM     24  C   UNL     1      28.299   5.548  48.364  0.00  0.00    +0.000 C 
ATOM     25  C   UNL     1      27.105   5.113  48.797  0.00  0.00    +0.000 C 
BRANCH  24  26
ATOM     26  C   UNL     1      28.582   6.839  47.639  0.00  0.00    +0.000 C 
BRANCH  26  27
ATOM     27  C   UNL     1      28.977   7.970  48.587  0.00  0.00    +0.000 C 
BRANCH  27  28
ATOM     28  C   UNL     1      30.466   8.066  48.734  0.00  0.00    +0.000 C 
ATOM     29  O   UNL     1      31.280   7.274  48.272  0.00  0.00    +0.000 OA
BRANCH  28  31
ATOM     30  C   UNL     1      30.293  10.392  49.008  0.00  0.00    +0.000 C 
ATOM     31  O   UNL     1      30.782   9.145  49.505  0.00  0.00    +0.000 OA
ENDBRANCH  28  31
ENDBRANCH  27  28
ENDBRANCH  26  27
ENDBRANCH  24  26
ENDBRANCH  23  25
ENDBRANCH  22  23
ENDBRANCH   1  22
TORSDOF 15
ENDMDL
