MODEL 1
REMARK VINA RESULT:    -7.914      0.000      0.000
REMARK INTER + INTRA:         -10.630
REMARK INTER:                  -9.995
REMARK INTRA:                  -0.635
REMARK UNBOUND:                -0.635
REMARK  Name = 
REMARK  7 active torsions:
REMARK  status: ('A' for Active; 'I' for Inactive)
REMARK    1  A    between atoms: C_1  and  C_2
REMARK    2  A    between atoms: C_2  and  C_3
REMARK    3  A    between atoms: C_3  and  C_4
REMARK    4  A    between atoms: C_4  and  N_5
REMARK    5  A    between atoms: C_10  and  C_11
REMARK    6  A    between atoms: C_14  and  N_15
REMARK    7  A    between atoms: C_25  and  C_26
REMARK                            x       y       z     vdW  Elec       q    Type
REMARK                         _______ _______ _______ _____ _____    ______ ____
ROOT
ATOM      1  N   UNL     1      24.054   4.493  50.569  0.00  0.00    +0.000 N 
ATOM      2  C   UNL     1      23.339   4.134  49.446  0.00  0.00    +0.000 C 
ATOM      3  O   UNL     1      23.177   4.900  48.504  0.00  0.00    +0.000 OA
ATOM      4  N   UNL     1      22.838   2.820  49.537  0.00  0.00    +0.000 N 
ATOM      5  N   UNL     1      23.132   2.099  50.710  0.00  0.00    +0.000 NA
ATOM      6  C   UNL     1      22.091   1.619  51.348  0.00  0.00    +0.000 C 
ATOM      7  C   UNL     1      20.691   1.920  50.944  0.00  0.00    +0.000 A 
ATOM      8  C   UNL     1      19.857   2.578  51.854  0.00  0.00    +0.000 A 
ATOM      9  C   UNL     1      18.632   2.993  51.382  0.00  0.00    +0.000 A 
ATOM     10  C   UNL     1      18.221   2.744  50.096  0.00  0.00    +0.000 A 
ATOM     11  C   UNL     1      19.011   2.060  49.188  0.00  0.00    +0.000 A 
ATOM     12  C   UNL     1      20.284   1.658  49.608  0.00  0.00    +0.000 A 
ATOM     13  C   UNL     1      21.281   1.039  48.656  0.00  0.00    +0.000 C 
ATOM     14  C   UNL     1      22.464   1.997  48.349  0.00  0.00    +0.000 C 
ATOM     15  C   UNL     1      22.186   2.726  47.030  0.00  0.00    +0.000 C 
ATOM     16  O   UNL     1      17.001   3.284  49.836  0.00  0.00    +0.000 OA
ATOM     17  C   UNL     1      16.778   4.033  51.050  0.00  0.00    +0.000 C 
ATOM     18  O   UNL     1      17.725   3.718  52.088  0.00  0.00    +0.000 OA
ATOM     19  H   UNL     1      23.991   3.916  51.365  0.00  0.00    +0.000 HD
ENDROOT
BRANCH   6  20
ATOM     20  C   UNL     1      22.316   0.753  52.543  0.00  0.00    +0.000 A 
ATOM     21  C   UNL     1      23.622   0.405  52.900  0.00  0.00    +0.000 A 
ATOM     22  C   UNL     1      23.846  -0.448  53.982  0.00  0.00    +0.000 A 
ATOM     23  C   UNL     1      22.774  -1.007  54.682  0.00  0.00    +0.000 A 
ATOM     24  C   UNL     1      21.477  -0.602  54.366  0.00  0.00    +0.000 A 
ATOM     25  C   UNL     1      21.242   0.257  53.288  0.00  0.00    +0.000 A 
BRANCH  23  26
ATOM     26  N   UNL     1      23.011  -1.789  55.821  0.00  0.00    +0.000 N 
ATOM     27  H   UNL     1      22.750  -1.455  56.710  0.00  0.00    +0.000 HD
ATOM     28  H   UNL     1      23.437  -2.672  55.733  0.00  0.00    +0.000 HD
ENDBRANCH  23  26
ENDBRANCH   6  20
BRANCH   1  29
ATOM     29  C   UNL     1      24.887   5.669  50.640  0.00  0.00    +0.000 C 
BRANCH  29  30
ATOM     30  C   UNL     1      24.227   6.834  51.374  0.00  0.00    +0.000 C 
BRANCH  30  32
ATOM     31  C   UNL     1      21.969   7.591  50.546  0.00  0.00    +0.000 C 
ATOM     32  C   UNL     1      23.475   7.784  50.439  0.00  0.00    +0.000 C 
ENDBRANCH  30  32
ENDBRANCH  29  30
ENDBRANCH   1  29
TORSDOF 5
ENDMDL
MODEL 2
REMARK VINA RESULT:    -7.705      3.010      5.523
REMARK INTER + INTRA:         -10.367
REMARK INTER:                  -9.810
REMARK INTRA:                  -0.557
REMARK UNBOUND:                -0.635
REMARK  Name = 
REMARK  7 active torsions:
REMARK  status: ('A' for Active; 'I' for Inactive)
REMARK    1  A    between atoms: C_1  and  C_2
REMARK    2  A    between atoms: C_2  and  C_3
REMARK    3  A    between atoms: C_3  and  C_4
REMARK    4  A    between atoms: C_4  and  N_5
REMARK    5  A    between atoms: C_10  and  C_11
REMARK    6  A    between atoms: C_14  and  N_15
REMARK    7  A    between atoms: C_25  and  C_26
REMARK                            x       y       z     vdW  Elec       q    Type
REMARK                         _______ _______ _______ _____ _____    ______ ____
ROOT
ATOM      1  N   UNL     1      20.858   6.629  49.620  0.00  0.00    +0.000 N 
ATOM      2  C   UNL     1      20.277   5.465  49.163  0.00  0.00    +0.000 C 
ATOM      3  O   UNL     1      19.073   5.259  49.255  0.00  0.00    +0.000 OA
ATOM      4  N   UNL     1      21.226   4.584  48.607  0.00  0.00    +0.000 N 
ATOM      5  N   UNL     1      22.568   5.006  48.598  0.00  0.00    +0.000 NA
ATOM      6  C   UNL     1      23.417   4.186  49.170  0.00  0.00    +0.000 C 
ATOM      7  C   UNL     1      22.987   2.959  49.895  0.00  0.00    +0.000 A 
ATOM      8  C   UNL     1      23.291   2.842  51.254  0.00  0.00    +0.000 A 
ATOM      9  C   UNL     1      22.727   1.781  51.926  0.00  0.00    +0.000 A 
ATOM     10  C   UNL     1      21.934   0.854  51.294  0.00  0.00    +0.000 A 
ATOM     11  C   UNL     1      21.650   0.926  49.942  0.00  0.00    +0.000 A 
ATOM     12  C   UNL     1      22.165   2.013  49.226  0.00  0.00    +0.000 A 
ATOM     13  C   UNL     1      21.795   2.267  47.783  0.00  0.00    +0.000 C 
ATOM     14  C   UNL     1      20.879   3.511  47.629  0.00  0.00    +0.000 C 
ATOM     15  C   UNL     1      19.419   3.051  47.556  0.00  0.00    +0.000 C 
ATOM     16  O   UNL     1      21.448  -0.076  52.158  0.00  0.00    +0.000 OA
ATOM     17  C   UNL     1      21.893   0.474  53.417  0.00  0.00    +0.000 C 
ATOM     18  O   UNL     1      22.837   1.550  53.260  0.00  0.00    +0.000 OA
ATOM     19  H   UNL     1      21.840   6.661  49.695  0.00  0.00    +0.000 HD
ENDROOT
BRANCH   6  20
ATOM     20  C   UNL     1      24.875   4.504  49.113  0.00  0.00    +0.000 A 
ATOM     21  C   UNL     1      25.280   5.802  48.794  0.00  0.00    +0.000 A 
ATOM     22  C   UNL     1      26.640   6.102  48.685  0.00  0.00    +0.000 A 
ATOM     23  C   UNL     1      27.604   5.103  48.835  0.00  0.00    +0.000 A 
ATOM     24  C   UNL     1      27.197   3.826  49.222  0.00  0.00    +0.000 A 
ATOM     25  C   UNL     1      25.838   3.517  49.340  0.00  0.00    +0.000 A 
BRANCH  23  26
ATOM     26  N   UNL     1      28.966   5.433  48.812  0.00  0.00    +0.000 N 
ATOM     27  H   UNL     1      29.256   6.299  48.448  0.00  0.00    +0.000 HD
ATOM     28  H   UNL     1      29.632   4.798  49.161  0.00  0.00    +0.000 HD
ENDBRANCH  23  26
ENDBRANCH   6  20
BRANCH   1  29
ATOM     29  C   UNL     1      20.105   7.801  49.996  0.00  0.00    +0.000 C 
BRANCH  29  30
ATOM     30  C   UNL     1      20.625   9.085  49.355  0.00  0.00    +0.000 C 
BRANCH  30  32
ATOM     31  C   UNL     1      20.432  11.596  49.239  0.00  0.00    +0.000 C 
ATOM     32  C   UNL     1      19.742  10.301  49.645  0.00  0.00    +0.000 C 
ENDBRANCH  30  32
ENDBRANCH  29  30
ENDBRANCH   1  29
TORSDOF 5
ENDMDL
MODEL 3
REMARK VINA RESULT:    -7.582      2.952      5.694
REMARK INTER + INTRA:         -10.212
REMARK INTER:                  -9.475
REMARK INTRA:                  -0.737
REMARK UNBOUND:                -0.635
REMARK  Name = 
REMARK  7 active torsions:
REMARK  status: ('A' for Active; 'I' for Inactive)
REMARK    1  A    between atoms: C_1  and  C_2
REMARK    2  A    between atoms: C_2  and  C_3
REMARK    3  A    between atoms: C_3  and  C_4
REMARK    4  A    between atoms: C_4  and  N_5
REMARK    5  A    between atoms: C_10  and  C_11
REMARK    6  A    between atoms: C_14  and  N_15
REMARK    7  A    between atoms: C_25  and  C_26
REMARK                            x       y       z     vdW  Elec       q    Type
REMARK                         _______ _______ _______ _____ _____    ______ ____
ROOT
ATOM      1  N   UNL     1      22.500   2.868  48.780  0.00  0.00    +0.000 N 
ATOM      2  C   UNL     1      23.256   3.705  49.573  0.00  0.00    +0.000 C 
ATOM      3  O   UNL     1      24.080   4.480  49.101  0.00  0.00    +0.000 OA
ATOM      4  N   UNL     1      22.963   3.544  50.942  0.00  0.00    +0.000 N 
ATOM      5  N   UNL     1      21.981   2.595  51.282  0.00  0.00    +0.000 NA
ATOM      6  C   UNL     1      22.361   1.678  52.139  0.00  0.00    +0.000 C 
ATOM      7  C   UNL     1      23.764   1.563  52.623  0.00  0.00    +0.000 A 
ATOM      8  C   UNL     1      24.466   0.380  52.369  0.00  0.00    +0.000 A 
ATOM      9  C   UNL     1      25.808   0.378  52.675  0.00  0.00    +0.000 A 
ATOM     10  C   UNL     1      26.430   1.464  53.240  0.00  0.00    +0.000 A 
ATOM     11  C   UNL     1      25.750   2.632  53.539  0.00  0.00    +0.000 A 
ATOM     12  C   UNL     1      24.392   2.697  53.203  0.00  0.00    +0.000 A 
ATOM     13  C   UNL     1      23.594   3.972  53.348  0.00  0.00    +0.000 C 
ATOM     14  C   UNL     1      23.234   4.591  51.970  0.00  0.00    +0.000 C 
ATOM     15  C   UNL     1      24.254   5.683  51.632  0.00  0.00    +0.000 C 
ATOM     16  O   UNL     1      27.763   1.257  53.413  0.00  0.00    +0.000 OA
ATOM     17  C   UNL     1      27.923  -0.011  52.741  0.00  0.00    +0.000 C 
ATOM     18  O   UNL     1      26.668  -0.643  52.423  0.00  0.00    +0.000 OA
ATOM     19  H   UNL     1      21.999   2.140  49.216  0.00  0.00    +0.000 HD
ENDROOT
BRANCH   6  20
ATOM     20  C   UNL     1      21.354   0.695  52.637  0.00  0.00    +0.000 A 
ATOM     21  C   UNL     1      20.152   0.537  51.942  0.00  0.00    +0.000 A 
ATOM     22  C   UNL     1      19.177  -0.339  52.424  0.00  0.00    +0.000 A 
ATOM     23  C   UNL     1      19.365  -1.021  53.629  0.00  0.00    +0.000 A 
ATOM     24  C   UNL     1      20.594  -0.913  54.281  0.00  0.00    +0.000 A 
ATOM     25  C   UNL     1      21.579  -0.043  53.803  0.00  0.00    +0.000 A 
BRANCH  23  26
ATOM     26  N   UNL     1      18.421  -1.964  54.057  0.00  0.00    +0.000 N 
ATOM     27  H   UNL     1      18.150  -2.696  53.456  0.00  0.00    +0.000 HD
ATOM     28  H   UNL     1      18.030  -1.897  54.958  0.00  0.00    +0.000 HD
ENDBRANCH  23  26
ENDBRANCH   6  20
BRANCH   1  29
ATOM     29  C   UNL     1      22.406   2.998  47.346  0.00  0.00    +0.000 C 
BRANCH  29  30
ATOM     30  C   UNL     1      21.327   3.981  46.898  0.00  0.00    +0.000 C 
BRANCH  30  32
ATOM     31  C   UNL     1      19.767   5.189  48.467  0.00  0.00    +0.000 C 
ATOM     32  C   UNL     1      20.046   3.887  47.730  0.00  0.00    +0.000 C 
ENDBRANCH  30  32
ENDBRANCH  29  30
ENDBRANCH   1  29
TORSDOF 5
ENDMDL
MODEL 4
REMARK VINA RESULT:    -7.364      2.003      2.607
REMARK INTER + INTRA:          -9.935
REMARK INTER:                  -9.542
REMARK INTRA:                  -0.393
REMARK UNBOUND:                -0.635
REMARK  Name = 
REMARK  7 active torsions:
REMARK  status: ('A' for Active; 'I' for Inactive)
REMARK    1  A    between atoms: C_1  and  C_2
REMARK    2  A    between atoms: C_2  and  C_3
REMARK    3  A    between atoms: C_3  and  C_4
REMARK    4  A    between atoms: C_4  and  N_5
REMARK    5  A    between atoms: C_10  and  C_11
REMARK    6  A    between atoms: C_14  and  N_15
REMARK    7  A    between atoms: C_25  and  C_26
REMARK                            x       y       z     vdW  Elec       q    Type
REMARK                         _______ _______ _______ _____ _____    ______ ____
ROOT
ATOM      1  N   UNL     1      23.314   5.908  50.744  0.00  0.00    +0.000 N 
ATOM      2  C   UNL     1      22.675   5.397  49.633  0.00  0.00    +0.000 C 
ATOM      3  O   UNL     1      21.880   6.059  48.978  0.00  0.00    +0.000 OA
ATOM      4  N   UNL     1      23.047   4.062  49.378  0.00  0.00    +0.000 N 
ATOM      5  N   UNL     1      23.978   3.475  50.255  0.00  0.00    +0.000 NA
ATOM      6  C   UNL     1      23.590   2.354  50.814  0.00  0.00    +0.000 C 
ATOM      7  C   UNL     1      22.218   1.802  50.644  0.00  0.00    +0.000 A 
ATOM      8  C   UNL     1      21.417   1.634  51.778  0.00  0.00    +0.000 A 
ATOM      9  C   UNL     1      20.102   1.290  51.561  0.00  0.00    +0.000 A 
ATOM     10  C   UNL     1      19.599   1.080  50.300  0.00  0.00    +0.000 A 
ATOM     11  C   UNL     1      20.381   1.200  49.165  0.00  0.00    +0.000 A 
ATOM     12  C   UNL     1      21.714   1.593  49.332  0.00  0.00    +0.000 A 
ATOM     13  C   UNL     1      22.611   1.899  48.154  0.00  0.00    +0.000 C 
ATOM     14  C   UNL     1      22.922   3.415  48.039  0.00  0.00    +0.000 C 
ATOM     15  C   UNL     1      21.963   4.045  47.023  0.00  0.00    +0.000 C 
ATOM     16  O   UNL     1      18.270   0.797  50.322  0.00  0.00    +0.000 OA
ATOM     17  C   UNL     1      17.974   1.018  51.717  0.00  0.00    +0.000 C 
ATOM     18  O   UNL     1      19.155   1.166  52.527  0.00  0.00    +0.000 OA
ATOM     19  H   UNL     1      23.789   5.282  51.337  0.00  0.00    +0.000 HD
ENDROOT
BRANCH   6  20
ATOM     20  C   UNL     1      24.554   1.607  51.675  0.00  0.00    +0.000 A 
ATOM     21  C   UNL     1      25.926   1.744  51.444  0.00  0.00    +0.000 A 
ATOM     22  C   UNL     1      26.839   1.012  52.206  0.00  0.00    +0.000 A 
ATOM     23  C   UNL     1      26.395   0.097  53.163  0.00  0.00    +0.000 A 
ATOM     24  C   UNL     1      25.030   0.016  53.438  0.00  0.00    +0.000 A 
ATOM     25  C   UNL     1      24.108   0.750  52.685  0.00  0.00    +0.000 A 
BRANCH  23  26
ATOM     26  N   UNL     1      27.320  -0.565  53.983  0.00  0.00    +0.000 N 
ATOM     27  H   UNL     1      28.216  -0.783  53.638  0.00  0.00    +0.000 HD
ATOM     28  H   UNL     1      27.074  -0.811  54.904  0.00  0.00    +0.000 HD
ENDBRANCH  23  26
ENDBRANCH   6  20
BRANCH   1  29
ATOM     29  C   UNL     1      23.321   7.311  51.083  0.00  0.00    +0.000 C 
BRANCH  29  30
ATOM     30  C   UNL     1      24.383   8.109  50.332  0.00  0.00    +0.000 C 
BRANCH  30  32
ATOM     31  C   UNL     1      26.164   7.022  48.917  0.00  0.00    +0.000 C 
ATOM     32  C   UNL     1      25.754   7.429  50.325  0.00  0.00    +0.000 C 
ENDBRANCH  30  32
ENDBRANCH  29  30
ENDBRANCH   1  29
TORSDOF 5
ENDMDL
MODEL 5
REMARK VINA RESULT:    -7.250      2.670      3.306
REMARK INTER + INTRA:          -9.792
REMARK INTER:                  -9.246
REMARK INTRA:                  -0.545
REMARK UNBOUND:                -0.635
REMARK  Name = 
REMARK  7 active torsions:
REMARK  status: ('A' for Active; 'I' for Inactive)
REMARK    1  A    between atoms: C_1  and  C_2
REMARK    2  A    between atoms: C_2  and  C_3
REMARK    3  A    between atoms: C_3  and  C_4
REMARK    4  A    between atoms: C_4  and  N_5
REMARK    5  A    between atoms: C_10  and  C_11
REMARK    6  A    between atoms: C_14  and  N_15
REMARK    7  A    between atoms: C_25  and  C_26
REMARK                            x       y       z     vdW  Elec       q    Type
REMARK                         _______ _______ _______ _____ _____    ______ ____
ROOT
ATOM      1  N   UNL     1      22.115   6.283  50.451  0.00  0.00    +0.000 N 
ATOM      2  C   UNL     1      21.633   5.479  49.439  0.00  0.00    +0.000 C 
ATOM      3  O   UNL     1      20.649   5.785  48.777  0.00  0.00    +0.000 OA
ATOM      4  N   UNL     1      22.398   4.305  49.288  0.00  0.00    +0.000 N 
ATOM      5  N   UNL     1      23.495   4.136  50.153  0.00  0.00    +0.000 NA
ATOM      6  C   UNL     1      23.498   3.019  50.841  0.00  0.00    +0.000 C 
ATOM      7  C   UNL     1      22.365   2.055  50.814  0.00  0.00    +0.000 A 
ATOM      8  C   UNL     1      21.695   1.774  52.010  0.00  0.00    +0.000 A 
ATOM      9  C   UNL     1      20.549   1.018  51.914  0.00  0.00    +0.000 A 
ATOM     10  C   UNL     1      20.096   0.524  50.715  0.00  0.00    +0.000 A 
ATOM     11  C   UNL     1      20.763   0.754  49.524  0.00  0.00    +0.000 A 
ATOM     12  C   UNL     1      21.909   1.556  49.565  0.00  0.00    +0.000 A 
ATOM     13  C   UNL     1      22.625   1.991  48.307  0.00  0.00    +0.000 C 
ATOM     14  C   UNL     1      22.439   3.507  48.028  0.00  0.00    +0.000 C 
ATOM     15  C   UNL     1      21.297   3.693  47.022  0.00  0.00    +0.000 C 
ATOM     16  O   UNL     1      18.925  -0.153  50.851  0.00  0.00    +0.000 OA
ATOM     17  C   UNL     1      18.621   0.120  52.236  0.00  0.00    +0.000 C 
ATOM     18  O   UNL     1      19.721   0.715  52.948  0.00  0.00    +0.000 OA
ATOM     19  H   UNL     1      22.782   5.904  51.069  0.00  0.00    +0.000 HD
ENDROOT
BRANCH   6  20
ATOM     20  C   UNL     1      24.676   2.708  51.703  0.00  0.00    +0.000 A 
ATOM     21  C   UNL     1      25.899   2.394  51.104  0.00  0.00    +0.000 A 
ATOM     22  C   UNL     1      26.996   2.049  51.895  0.00  0.00    +0.000 A 
ATOM     23  C   UNL     1      26.873   1.958  53.284  0.00  0.00    +0.000 A 
ATOM     24  C   UNL     1      25.671   2.340  53.881  0.00  0.00    +0.000 A 
ATOM     25  C   UNL     1      24.568   2.694  53.097  0.00  0.00    +0.000 A 
BRANCH  23  26
ATOM     26  N   UNL     1      28.001   1.700  54.074  0.00  0.00    +0.000 N 
ATOM     27  H   UNL     1      28.684   2.397  54.199  0.00  0.00    +0.000 HD
ATOM     28  H   UNL     1      28.111   0.821  54.504  0.00  0.00    +0.000 HD
ENDBRANCH  23  26
ENDBRANCH   6  20
BRANCH   1  29
ATOM     29  C   UNL     1      21.692   7.647  50.655  0.00  0.00    +0.000 C 
BRANCH  29  30
ATOM     30  C   UNL     1      22.163   8.597  49.557  0.00  0.00    +0.000 C 
BRANCH  30  32
ATOM     31  C   UNL     1      19.706   9.154  49.471  0.00  0.00    +0.000 C 
ATOM     32  C   UNL     1      21.116   9.647  49.180  0.00  0.00    +0.000 C 
ENDBRANCH  30  32
ENDBRANCH  29  30
ENDBRANCH   1  29
TORSDOF 5
ENDMDL
MODEL 6
REMARK VINA RESULT:    -7.192      2.326      6.106
REMARK INTER + INTRA:          -9.719
REMARK INTER:                  -8.960
REMARK INTRA:                  -0.759
REMARK UNBOUND:                -0.635
REMARK  Name = 
REMARK  7 active torsions:
REMARK  status: ('A' for Active; 'I' for Inactive)
REMARK    1  A    between atoms: C_1  and  C_2
REMARK    2  A    between atoms: C_2  and  C_3
REMARK    3  A    between atoms: C_3  and  C_4
REMARK    4  A    between atoms: C_4  and  N_5
REMARK    5  A    between atoms: C_10  and  C_11
REMARK    6  A    between atoms: C_14  and  N_15
REMARK    7  A    between atoms: C_25  and  C_26
REMARK                            x       y       z     vdW  Elec       q    Type
REMARK                         _______ _______ _______ _____ _____    ______ ____
ROOT
ATOM      1  N   UNL     1      21.187   3.193  48.803  0.00  0.00    +0.000 N 
ATOM      2  C   UNL     1      21.362   4.539  49.048  0.00  0.00    +0.000 C 
ATOM      3  O   UNL     1      20.956   5.399  48.276  0.00  0.00    +0.000 OA
ATOM      4  N   UNL     1      22.049   4.772  50.256  0.00  0.00    +0.000 N 
ATOM      5  N   UNL     1      22.436   3.643  51.003  0.00  0.00    +0.000 NA
ATOM      6  C   UNL     1      23.714   3.573  51.291  0.00  0.00    +0.000 C 
ATOM      7  C   UNL     1      24.712   4.542  50.760  0.00  0.00    +0.000 A 
ATOM      8  C   UNL     1      25.753   4.061  49.959  0.00  0.00    +0.000 A 
ATOM      9  C   UNL     1      26.548   5.002  49.347  0.00  0.00    +0.000 A 
ATOM     10  C   UNL     1      26.365   6.350  49.536  0.00  0.00    +0.000 A 
ATOM     11  C   UNL     1      25.367   6.850  50.355  0.00  0.00    +0.000 A 
ATOM     12  C   UNL     1      24.504   5.932  50.964  0.00  0.00    +0.000 A 
ATOM     13  C   UNL     1      23.294   6.375  51.755  0.00  0.00    +0.000 C 
ATOM     14  C   UNL     1      21.968   6.053  51.016  0.00  0.00    +0.000 C 
ATOM     15  C   UNL     1      21.498   7.304  50.265  0.00  0.00    +0.000 C 
ATOM     16  O   UNL     1      27.232   7.092  48.799  0.00  0.00    +0.000 OA
ATOM     17  C   UNL     1      27.860   6.060  48.009  0.00  0.00    +0.000 C 
ATOM     18  O   UNL     1      27.550   4.731  48.470  0.00  0.00    +0.000 OA
ATOM     19  H   UNL     1      21.694   2.551  49.351  0.00  0.00    +0.000 HD
ENDROOT
BRANCH   6  20
ATOM     20  C   UNL     1      24.194   2.467  52.169  0.00  0.00    +0.000 A 
ATOM     21  C   UNL     1      25.274   2.694  53.028  0.00  0.00    +0.000 A 
ATOM     22  C   UNL     1      25.769   1.654  53.817  0.00  0.00    +0.000 A 
ATOM     23  C   UNL     1      25.234   0.368  53.718  0.00  0.00    +0.000 A 
ATOM     24  C   UNL     1      24.113   0.163  52.913  0.00  0.00    +0.000 A 
ATOM     25  C   UNL     1      23.605   1.199  52.123  0.00  0.00    +0.000 A 
BRANCH  23  26
ATOM     26  N   UNL     1      25.678  -0.646  54.579  0.00  0.00    +0.000 N 
ATOM     27  H   UNL     1      26.624  -0.684  54.847  0.00  0.00    +0.000 HD
ATOM     28  H   UNL     1      25.043  -1.319  54.916  0.00  0.00    +0.000 HD
ENDBRANCH  23  26
ENDBRANCH   6  20
BRANCH   1  29
ATOM     29  C   UNL     1      20.304   2.677  47.785  0.00  0.00    +0.000 C 
BRANCH  29  30
ATOM     30  C   UNL     1      18.832   2.710  48.188  0.00  0.00    +0.000 C 
BRANCH  30  32
ATOM     31  C   UNL     1      18.543   0.941  49.961  0.00  0.00    +0.000 C 
ATOM     32  C   UNL     1      18.610   2.435  49.677  0.00  0.00    +0.000 C 
ENDBRANCH  30  32
ENDBRANCH  29  30
ENDBRANCH   1  29
TORSDOF 5
ENDMDL
MODEL 7
REMARK VINA RESULT:    -6.777      3.102      6.788
REMARK INTER + INTRA:          -9.194
REMARK INTER:                  -8.309
REMARK INTRA:                  -0.885
REMARK UNBOUND:                -0.635
REMARK  Name = 
REMARK  7 active torsions:
REMARK  status: ('A' for Active; 'I' for Inactive)
REMARK    1  A    between atoms: C_1  and  C_2
REMARK    2  A    between atoms: C_2  and  C_3
REMARK    3  A    between atoms: C_3  and  C_4
REMARK    4  A    between atoms: C_4  and  N_5
REMARK    5  A    between atoms: C_10  and  C_11
REMARK    6  A    between atoms: C_14  and  N_15
REMARK    7  A    between atoms: C_25  and  C_26
REMARK                            x       y       z     vdW  Elec       q    Type
REMARK                         _______ _______ _______ _____ _____    ______ ____
ROOT
ATOM      1  N   UNL     1      25.117   1.499  52.095  0.00  0.00    +0.000 N 
ATOM      2  C   UNL     1      23.978   2.160  52.504  0.00  0.00    +0.000 C 
ATOM      3  O   UNL     1      23.093   1.600  53.140  0.00  0.00    +0.000 OA
ATOM      4  N   UNL     1      23.975   3.509  52.096  0.00  0.00    +0.000 N 
ATOM      5  N   UNL     1      25.089   3.963  51.366  0.00  0.00    +0.000 NA
ATOM      6  C   UNL     1      24.814   4.508  50.206  0.00  0.00    +0.000 C 
ATOM      7  C   UNL     1      23.440   4.533  49.634  0.00  0.00    +0.000 A 
ATOM      8  C   UNL     1      23.211   3.894  48.411  0.00  0.00    +0.000 A 
ATOM      9  C   UNL     1      21.901   3.787  48.005  0.00  0.00    +0.000 A 
ATOM     10  C   UNL     1      20.863   4.314  48.734  0.00  0.00    +0.000 A 
ATOM     11  C   UNL     1      21.067   4.986  49.927  0.00  0.00    +0.000 A 
ATOM     12  C   UNL     1      22.380   5.080  50.404  0.00  0.00    +0.000 A 
ATOM     13  C   UNL     1      22.696   5.659  51.764  0.00  0.00    +0.000 C 
ATOM     14  C   UNL     1      23.165   4.569  52.765  0.00  0.00    +0.000 C 
ATOM     15  C   UNL     1      21.971   4.129  53.619  0.00  0.00    +0.000 C 
ATOM     16  O   UNL     1      19.656   4.050  48.169  0.00  0.00    +0.000 OA
ATOM     17  C   UNL     1      20.051   3.163  47.101  0.00  0.00    +0.000 C 
ATOM     18  O   UNL     1      21.476   3.129  46.894  0.00  0.00    +0.000 OA
ATOM     19  H   UNL     1      25.698   1.938  51.431  0.00  0.00    +0.000 HD
ENDROOT
BRANCH   6  20
ATOM     20  C   UNL     1      25.925   5.112  49.413  0.00  0.00    +0.000 A 
ATOM     21  C   UNL     1      27.060   4.347  49.132  0.00  0.00    +0.000 A 
ATOM     22  C   UNL     1      28.131   4.914  48.437  0.00  0.00    +0.000 A 
ATOM     23  C   UNL     1      28.106   6.261  48.066  0.00  0.00    +0.000 A 
ATOM     24  C   UNL     1      26.943   7.000  48.286  0.00  0.00    +0.000 A 
ATOM     25  C   UNL     1      25.863   6.439  48.976  0.00  0.00    +0.000 A 
BRANCH  23  26
ATOM     26  N   UNL     1      29.145   6.795  47.292  0.00  0.00    +0.000 N 
ATOM     27  H   UNL     1      29.918   6.235  47.053  0.00  0.00    +0.000 HD
ATOM     28  H   UNL     1      29.100   7.730  46.985  0.00  0.00    +0.000 HD
ENDBRANCH  23  26
ENDBRANCH   6  20
BRANCH   1  29
ATOM     29  C   UNL     1      25.502   0.198  52.585  0.00  0.00    +0.000 C 
BRANCH  29  30
ATOM     30  C   UNL     1      27.007  -0.049  52.529  0.00  0.00    +0.000 C 
BRANCH  30  32
ATOM     31  C   UNL     1      29.234   0.332  53.647  0.00  0.00    +0.000 C 
ATOM     32  C   UNL     1      27.795   0.809  53.521  0.00  0.00    +0.000 C 
ENDBRANCH  30  32
ENDBRANCH  29  30
ENDBRANCH   1  29
TORSDOF 5
ENDMDL
MODEL 8
REMARK VINA RESULT:    -6.294      2.770      6.417
REMARK INTER + INTRA:          -8.584
REMARK INTER:                  -7.750
REMARK INTRA:                  -0.834
REMARK UNBOUND:                -0.635
REMARK  Name = 
REMARK  7 active torsions:
REMARK  status: ('A' for Active; 'I' for Inactive)
REMARK    1  A    between atoms: C_1  and  C_2
REMARK    2  A    between atoms: C_2  and  C_3
REMARK    3  A    between atoms: C_3  and  C_4
REMARK    4  A    between atoms: C_4  and  N_5
REMARK    5  A    between atoms: C_10  and  C_11
REMARK    6  A    between atoms: C_14  and  N_15
REMARK    7  A    between atoms: C_25  and  C_26
REMARK                            x       y       z     vdW  Elec       q    Type
REMARK                         _______ _______ _______ _____ _____    ______ ____
ROOT
ATOM      1  N   UNL     1      21.149   1.630  52.021  0.00  0.00    +0.000 N 
ATOM      2  C   UNL     1      21.716   1.799  50.776  0.00  0.00    +0.000 C 
ATOM      3  O   UNL     1      22.907   1.601  50.570  0.00  0.00    +0.000 OA
ATOM      4  N   UNL     1      20.772   2.220  49.818  0.00  0.00    +0.000 N 
ATOM      5  N   UNL     1      19.446   2.395  50.256  0.00  0.00    +0.000 NA
ATOM      6  C   UNL     1      18.930   3.578  50.022  0.00  0.00    +0.000 C 
ATOM      7  C   UNL     1      19.722   4.703  49.454  0.00  0.00    +0.000 A 
ATOM      8  C   UNL     1      19.863   5.872  50.208  0.00  0.00    +0.000 A 
ATOM      9  C   UNL     1      20.743   6.815  49.729  0.00  0.00    +0.000 A 
ATOM     10  C   UNL     1      21.424   6.647  48.548  0.00  0.00    +0.000 A 
ATOM     11  C   UNL     1      21.272   5.518  47.763  0.00  0.00    +0.000 A 
ATOM     12  C   UNL     1      20.422   4.509  48.233  0.00  0.00    +0.000 A 
ATOM     13  C   UNL     1      20.299   3.176  47.531  0.00  0.00    +0.000 C 
ATOM     14  C   UNL     1      20.947   2.027  48.349  0.00  0.00    +0.000 C 
ATOM     15  C   UNL     1      22.364   1.778  47.822  0.00  0.00    +0.000 C 
ATOM     16  O   UNL     1      22.271   7.680  48.295  0.00  0.00    +0.000 OA
ATOM     17  C   UNL     1      22.159   8.423  49.528  0.00  0.00    +0.000 C 
ATOM     18  O   UNL     1      21.075   7.971  50.362  0.00  0.00    +0.000 OA
ATOM     19  H   UNL     1      20.241   1.983  52.171  0.00  0.00    +0.000 HD
ENDROOT
BRANCH   6  20
ATOM     20  C   UNL     1      17.495   3.817  50.357  0.00  0.00    +0.000 A 
ATOM     21  C   UNL     1      17.083   3.751  51.690  0.00  0.00    +0.000 A 
ATOM     22  C   UNL     1      15.735   3.920  52.014  0.00  0.00    +0.000 A 
ATOM     23  C   UNL     1      14.779   4.097  51.012  0.00  0.00    +0.000 A 
ATOM     24  C   UNL     1      15.203   4.231  49.690  0.00  0.00    +0.000 A 
ATOM     25  C   UNL     1      16.552   4.071  49.356  0.00  0.00    +0.000 A 
BRANCH  23  26
ATOM     26  N   UNL     1      13.444   4.354  51.354  0.00  0.00    +0.000 N 
ATOM     27  H   UNL     1      12.784   4.545  50.649  0.00  0.00    +0.000 HD
ATOM     28  H   UNL     1      13.166   4.344  52.298  0.00  0.00    +0.000 HD
ENDBRANCH  23  26
ENDBRANCH   6  20
BRANCH   1  29
ATOM     29  C   UNL     1      21.814   0.966  53.116  0.00  0.00    +0.000 C 
BRANCH  29  30
ATOM     30  C   UNL     1      20.852   0.283  54.084  0.00  0.00    +0.000 C 
BRANCH  30  32
ATOM     31  C   UNL     1      22.598  -1.237  55.082  0.00  0.00    +0.000 C 
ATOM     32  C   UNL     1      21.241  -1.163  54.397  0.00  0.00    +0.000 C 
ENDBRANCH  30  32
ENDBRANCH  29  30
ENDBRANCH   1  29
TORSDOF 5
ENDMDL
MODEL 9
REMARK VINA RESULT:    -6.228      3.737      7.513
REMARK INTER + INTRA:          -8.501
REMARK INTER:                  -8.458
REMARK INTRA:                  -0.043
REMARK UNBOUND:                -0.635
REMARK  Name = 
REMARK  7 active torsions:
REMARK  status: ('A' for Active; 'I' for Inactive)
REMARK    1  A    between atoms: C_1  and  C_2
REMARK    2  A    between atoms: C_2  and  C_3
REMARK    3  A    between atoms: C_3  and  C_4
REMARK    4  A    between atoms: C_4  and  N_5
REMARK    5  A    between atoms: C_10  and  C_11
REMARK    6  A    between atoms: C_14  and  N_15
REMARK    7  A    between atoms: C_25  and  C_26
REMARK                            x       y       z     vdW  Elec       q    Type
REMARK                         _______ _______ _______ _____ _____    ______ ____
ROOT
ATOM      1  N   UNL     1      15.634   4.015  52.977  0.00  0.00    +0.000 N 
ATOM      2  C   UNL     1      15.602   2.733  52.470  0.00  0.00    +0.000 C 
ATOM      3  O   UNL     1      14.835   1.881  52.901  0.00  0.00    +0.000 OA
ATOM      4  N   UNL     1      16.541   2.551  51.436  0.00  0.00    +0.000 N 
ATOM      5  N   UNL     1      17.337   3.659  51.086  0.00  0.00    +0.000 NA
ATOM      6  C   UNL     1      18.631   3.454  51.129  0.00  0.00    +0.000 C 
ATOM      7  C   UNL     1      19.230   2.188  51.634  0.00  0.00    +0.000 A 
ATOM      8  C   UNL     1      20.077   2.244  52.745  0.00  0.00    +0.000 A 
ATOM      9  C   UNL     1      20.467   1.040  53.287  0.00  0.00    +0.000 A 
ATOM     10  C   UNL     1      20.083  -0.163  52.747  0.00  0.00    +0.000 A 
ATOM     11  C   UNL     1      19.278  -0.245  51.625  0.00  0.00    +0.000 A 
ATOM     12  C   UNL     1      18.819   0.953  51.066  0.00  0.00    +0.000 A 
ATOM     13  C   UNL     1      17.818   0.975  49.934  0.00  0.00    +0.000 C 
ATOM     14  C   UNL     1      16.427   1.485  50.397  0.00  0.00    +0.000 C 
ATOM     15  C   UNL     1      15.529   0.281  50.701  0.00  0.00    +0.000 C 
ATOM     16  O   UNL     1      20.545  -1.218  53.470  0.00  0.00    +0.000 OA
ATOM     17  C   UNL     1      21.116  -0.532  54.605  0.00  0.00    +0.000 C 
ATOM     18  O   UNL     1      21.215   0.892  54.411  0.00  0.00    +0.000 OA
ATOM     19  H   UNL     1      16.390   4.595  52.730  0.00  0.00    +0.000 HD
ENDROOT
BRANCH   6  20
ATOM     20  C   UNL     1      19.547   4.541  50.673  0.00  0.00    +0.000 A 
ATOM     21  C   UNL     1      19.139   5.393  49.643  0.00  0.00    +0.000 A 
ATOM     22  C   UNL     1      20.005   6.381  49.169  0.00  0.00    +0.000 A 
ATOM     23  C   UNL     1      21.302   6.492  49.674  0.00  0.00    +0.000 A 
ATOM     24  C   UNL     1      21.680   5.687  50.748  0.00  0.00    +0.000 A 
ATOM     25  C   UNL     1      20.818   4.699  51.235  0.00  0.00    +0.000 A 
BRANCH  23  26
ATOM     26  N   UNL     1      22.130   7.543  49.255  0.00  0.00    +0.000 N 
ATOM     27  H   UNL     1      23.108   7.452  49.316  0.00  0.00    +0.000 HD
ATOM     28  H   UNL     1      21.734   8.371  48.899  0.00  0.00    +0.000 HD
ENDBRANCH  23  26
ENDBRANCH   6  20
BRANCH   1  29
ATOM     29  C   UNL     1      14.619   4.550  53.853  0.00  0.00    +0.000 C 
BRANCH  29  30
ATOM     30  C   UNL     1      13.204   4.403  53.301  0.00  0.00    +0.000 C 
BRANCH  30  32
ATOM     31  C   UNL     1      11.843   2.749  54.631  0.00  0.00    +0.000 C 
ATOM     32  C   UNL     1      12.148   4.221  54.394  0.00  0.00    +0.000 C 
ENDBRANCH  30  32
ENDBRANCH  29  30
ENDBRANCH   1  29
TORSDOF 5
ENDMDL
