MODEL 1
REMARK VINA RESULT:    -7.589      0.000      0.000
REMARK INTER + INTRA:         -13.588
REMARK INTER:                 -11.582
REMARK INTRA:                  -2.006
REMARK UNBOUND:                -2.006
REMARK  Name = 
REMARK  11 active torsions:
REMARK  status: ('A' for Active; 'I' for Inactive)
REMARK    1  A    between atoms: C_1  and  C_2
REMARK    2  A    between atoms: C_2  and  C_3
REMARK    3  A    between atoms: C_3  and  O_4
REMARK    4  A    between atoms: O_4  and  C_5
REMARK    5  A    between atoms: C_5  and  C_6
REMARK    6  A    between atoms: C_6  and  N_7
REMARK    7  A    between atoms: C_9  and  C_10
REMARK    8  A    between atoms: C_19  and  C_20
REMARK    9  A    between atoms: C_23  and  C_24
REMARK   10  A    between atoms: C_27  and  O_28
REMARK   11  A    between atoms: O_28  and  C_29
REMARK                            x       y       z     vdW  Elec       q    Type
REMARK                         _______ _______ _______ _____ _____    ______ ____
ROOT
ATOM      1  N   UNL     1      23.108   3.906  52.035  0.00  0.00    +0.000 N 
ATOM      2  C   UNL     1      23.746   5.056  51.377  0.00  0.00    +0.000 C 
ATOM      3  C   UNL     1      23.710   4.781  49.875  0.00  0.00    +0.000 C 
ATOM      4  C   UNL     1      23.870   3.263  49.797  0.00  0.00    +0.000 C 
ATOM      5  C   UNL     1      23.354   2.733  51.157  0.00  0.00    +0.000 C 
ATOM      6  H   UNL     1      23.509   3.721  52.954  0.00  0.00    +0.000 HD
ENDROOT
BRANCH   3   7
ATOM      7  C   UNL     1      24.719   5.667  49.167  0.00  0.00    +0.000 A 
ATOM      8  C   UNL     1      24.359   6.803  48.403  0.00  0.00    +0.000 A 
ATOM      9  C   UNL     1      25.321   7.549  47.710  0.00  0.00    +0.000 A 
ATOM     10  C   UNL     1      26.632   7.144  47.792  0.00  0.00    +0.000 A 
ATOM     11  C   UNL     1      26.998   6.033  48.511  0.00  0.00    +0.000 A 
ATOM     12  C   UNL     1      26.073   5.276  49.198  0.00  0.00    +0.000 A 
ATOM     13  O   UNL     1      28.333   5.788  48.446  0.00  0.00    +0.000 OA
ATOM     14  C   UNL     1      28.779   6.937  47.696  0.00  0.00    +0.000 C 
ATOM     15  O   UNL     1      27.695   7.748  47.195  0.00  0.00    +0.000 OA
ENDBRANCH   3   7
BRANCH   5  16
ATOM     16  C   UNL     1      24.383   1.774  51.762  0.00  0.00    +0.000 A 
ATOM     17  C   UNL     1      24.031   0.798  52.708  0.00  0.00    +0.000 A 
ATOM     18  C   UNL     1      24.997  -0.027  53.301  0.00  0.00    +0.000 A 
ATOM     19  C   UNL     1      26.341   0.114  52.961  0.00  0.00    +0.000 A 
ATOM     20  C   UNL     1      26.703   1.079  52.021  0.00  0.00    +0.000 A 
ATOM     21  C   UNL     1      25.739   1.904  51.428  0.00  0.00    +0.000 A 
BRANCH  19  22
ATOM     22  O   UNL     1      27.377  -0.614  53.478  0.00  0.00    +0.000 OA
ATOM     23  C   UNL     1      28.168   0.018  54.477  0.00  0.00    +0.000 C 
ENDBRANCH  19  22
ENDBRANCH   5  16
BRANCH   4  24
ATOM     24  C   UNL     1      23.027   2.687  48.692  0.00  0.00    +0.000 C 
ATOM     25  O   UNL     1      22.914   3.124  47.560  0.00  0.00    +0.000 OA
ATOM     26  O   UNL     1      22.344   1.583  49.063  0.00  0.00    +0.000 OA
ENDBRANCH   4  24
BRANCH   1  27
ATOM     27  C   UNL     1      21.682   4.167  52.332  0.00  0.00    +0.000 C 
BRANCH  27  28
ATOM     28  C   UNL     1      20.749   2.957  52.095  0.00  0.00    +0.000 C 
BRANCH  28  29
ATOM     29  O   UNL     1      20.437   2.178  53.251  0.00  0.00    +0.000 OA
BRANCH  29  30
ATOM     30  C   UNL     1      20.454   0.761  53.134  0.00  0.00    +0.000 C 
BRANCH  30  32
ATOM     31  C   UNL     1      21.332  -1.437  54.114  0.00  0.00    +0.000 C 
ATOM     32  C   UNL     1      20.824  -0.030  54.390  0.00  0.00    +0.000 C 
ENDBRANCH  30  32
ENDBRANCH  29  30
ENDBRANCH  28  29
ENDBRANCH  27  28
ENDBRANCH   1  27
TORSDOF 9
ENDMDL
MODEL 2
REMARK VINA RESULT:    -7.498      1.903      6.404
REMARK INTER + INTRA:         -13.449
REMARK INTER:                 -11.100
REMARK INTRA:                  -2.349
REMARK UNBOUND:                -2.006
REMARK  Name = 
REMARK  11 active torsions:
REMARK  status: ('A' for Active; 'I' for Inactive)
REMARK    1  A    between atoms: C_1  and  C_2
REMARK    2  A    between atoms: C_2  and  C_3
REMARK    3  A    between atoms: C_3  and  O_4
REMARK    4  A    between atoms: O_4  and  C_5
REMARK    5  A    between atoms: C_5  and  C_6
REMARK    6  A    between atoms: C_6  and  N_7
REMARK    7  A    between atoms: C_9  and  C_10
REMARK    8  A    between atoms: C_19  and  C_20
REMARK    9  A    between atoms: C_23  and  C_24
REMARK   10  A    between atoms: C_27  and  O_28
REMARK   11  A    between atoms: O_28  and  C_29
REMARK                            x       y       z     vdW  Elec       q    Type
REMARK                         _______ _______ _______ _____ _____    ______ ____
ROOT
ATOM      1  N   UNL     1      23.435   3.914  48.624  0.00  0.00    +0.000 N 
ATOM      2  C   UNL     1      23.520   2.648  49.366  0.00  0.00    +0.000 C 
ATOM      3  C   UNL     1      23.490   3.004  50.852  0.00  0.00    +0.000 C 
ATOM      4  C   UNL     1      24.230   4.340  50.903  0.00  0.00    +0.000 C 
ATOM      5  C   UNL     1      24.061   4.948  49.489  0.00  0.00    +0.000 C 
ATOM      6  H   UNL     1      23.939   3.873  47.739  0.00  0.00    +0.000 HD
ENDROOT
BRANCH   3   7
ATOM      7  C   UNL     1      24.016   1.839  51.669  0.00  0.00    +0.000 A 
ATOM      8  C   UNL     1      23.197   1.036  52.500  0.00  0.00    +0.000 A 
ATOM      9  C   UNL     1      23.741   0.015  53.291  0.00  0.00    +0.000 A 
ATOM     10  C   UNL     1      25.099  -0.188  53.236  0.00  0.00    +0.000 A 
ATOM     11  C   UNL     1      25.912   0.593  52.452  0.00  0.00    +0.000 A 
ATOM     12  C   UNL     1      25.406   1.609  51.669  0.00  0.00    +0.000 A 
ATOM     13  O   UNL     1      27.223   0.250  52.557  0.00  0.00    +0.000 OA
ATOM     14  C   UNL     1      27.126  -0.909  53.411  0.00  0.00    +0.000 C 
ATOM     15  O   UNL     1      25.796  -1.132  53.924  0.00  0.00    +0.000 OA
ENDBRANCH   3   7
BRANCH   5  16
ATOM     16  C   UNL     1      25.425   5.391  48.950  0.00  0.00    +0.000 A 
ATOM     17  C   UNL     1      26.571   4.587  49.061  0.00  0.00    +0.000 A 
ATOM     18  C   UNL     1      27.824   5.036  48.622  0.00  0.00    +0.000 A 
ATOM     19  C   UNL     1      27.955   6.306  48.065  0.00  0.00    +0.000 A 
ATOM     20  C   UNL     1      26.824   7.113  47.946  0.00  0.00    +0.000 A 
ATOM     21  C   UNL     1      25.571   6.667  48.386  0.00  0.00    +0.000 A 
BRANCH  19  22
ATOM     22  O   UNL     1      29.120   6.866  47.616  0.00  0.00    +0.000 OA
ATOM     23  C   UNL     1      30.307   6.101  47.790  0.00  0.00    +0.000 C 
ENDBRANCH  19  22
ENDBRANCH   5  16
BRANCH   4  24
ATOM     24  C   UNL     1      23.607   5.264  51.914  0.00  0.00    +0.000 C 
ATOM     25  O   UNL     1      23.063   4.943  52.955  0.00  0.00    +0.000 OA
ATOM     26  O   UNL     1      23.681   6.567  51.562  0.00  0.00    +0.000 OA
ENDBRANCH   4  24
BRANCH   1  27
ATOM     27  C   UNL     1      22.046   4.214  48.210  0.00  0.00    +0.000 C 
BRANCH  27  28
ATOM     28  C   UNL     1      21.494   5.554  48.750  0.00  0.00    +0.000 C 
BRANCH  28  29
ATOM     29  O   UNL     1      20.659   5.461  49.905  0.00  0.00    +0.000 OA
BRANCH  29  30
ATOM     30  C   UNL     1      20.091   4.198  50.227  0.00  0.00    +0.000 C 
BRANCH  30  32
ATOM     31  C   UNL     1      19.796   2.365  51.992  0.00  0.00    +0.000 C 
ATOM     32  C   UNL     1      19.984   3.849  51.712  0.00  0.00    +0.000 C 
ENDBRANCH  30  32
ENDBRANCH  29  30
ENDBRANCH  28  29
ENDBRANCH  27  28
ENDBRANCH   1  27
TORSDOF 9
ENDMDL
MODEL 3
REMARK VINA RESULT:    -7.416      2.219      7.375
REMARK INTER + INTRA:         -13.324
REMARK INTER:                 -11.541
REMARK INTRA:                  -1.782
REMARK UNBOUND:                -2.006
REMARK  Name = 
REMARK  11 active torsions:
REMARK  status: ('A' for Active; 'I' for Inactive)
REMARK    1  A    between atoms: C_1  and  C_2
REMARK    2  A    between atoms: C_2  and  C_3
REMARK    3  A    between atoms: C_3  and  O_4
REMARK    4  A    between atoms: O_4  and  C_5
REMARK    5  A    between atoms: C_5  and  C_6
REMARK    6  A    between atoms: C_6  and  N_7
REMARK    7  A    between atoms: C_9  and  C_10
REMARK    8  A    between atoms: C_19  and  C_20
REMARK    9  A    between atoms: C_23  and  C_24
REMARK   10  A    between atoms: C_27  and  O_28
REMARK   11  A    between atoms: O_28  and  C_29
REMARK                            x       y       z     vdW  Elec       q    Type
REMARK                         _______ _______ _______ _____ _____    ______ ____
ROOT
ATOM      1  N   UNL     1      23.266   2.214  49.489  0.00  0.00    +0.000 N 
ATOM      2  C   UNL     1      21.988   1.490  49.430  0.00  0.00    +0.000 C 
ATOM      3  C   UNL     1      21.062   2.144  50.454  0.00  0.00    +0.000 C 
ATOM      4  C   UNL     1      22.020   2.560  51.570  0.00  0.00    +0.000 C 
ATOM      5  C   UNL     1      23.397   2.716  50.881  0.00  0.00    +0.000 C 
ATOM      6  H   UNL     1      24.059   1.608  49.280  0.00  0.00    +0.000 HD
ENDROOT
BRANCH   3   7
ATOM      7  C   UNL     1      19.914   1.206  50.779  0.00  0.00    +0.000 A 
ATOM      8  C   UNL     1      18.759   1.076  49.969  0.00  0.00    +0.000 A 
ATOM      9  C   UNL     1      17.694   0.249  50.348  0.00  0.00    +0.000 A 
ATOM     10  C   UNL     1      17.800  -0.437  51.535  0.00  0.00    +0.000 A 
ATOM     11  C   UNL     1      18.903  -0.308  52.343  0.00  0.00    +0.000 A 
ATOM     12  C   UNL     1      19.963   0.503  52.000  0.00  0.00    +0.000 A 
ATOM     13  O   UNL     1      18.804  -1.047  53.479  0.00  0.00    +0.000 OA
ATOM     14  C   UNL     1      17.562  -1.741  53.238  0.00  0.00    +0.000 C 
ATOM     15  O   UNL     1      16.874  -1.286  52.054  0.00  0.00    +0.000 OA
ENDBRANCH   3   7
BRANCH   5  16
ATOM     16  C   UNL     1      24.460   1.943  51.668  0.00  0.00    +0.000 A 
ATOM     17  C   UNL     1      25.833   2.086  51.411  0.00  0.00    +0.000 A 
ATOM     18  C   UNL     1      26.788   1.321  52.095  0.00  0.00    +0.000 A 
ATOM     19  C   UNL     1      26.384   0.390  53.050  0.00  0.00    +0.000 A 
ATOM     20  C   UNL     1      25.023   0.241  53.316  0.00  0.00    +0.000 A 
ATOM     21  C   UNL     1      24.067   1.004  52.632  0.00  0.00    +0.000 A 
BRANCH  19  22
ATOM     22  O   UNL     1      27.212  -0.426  53.771  0.00  0.00    +0.000 OA
ATOM     23  C   UNL     1      27.989   0.190  54.791  0.00  0.00    +0.000 C 
ENDBRANCH  19  22
ENDBRANCH   5  16
BRANCH   4  24
ATOM     24  C   UNL     1      21.614   3.880  52.165  0.00  0.00    +0.000 C 
ATOM     25  O   UNL     1      22.297   4.603  52.869  0.00  0.00    +0.000 OA
ATOM     26  O   UNL     1      20.346   4.234  51.860  0.00  0.00    +0.000 OA
ENDBRANCH   4  24
BRANCH   1  27
ATOM     27  C   UNL     1      23.352   3.259  48.445  0.00  0.00    +0.000 C 
BRANCH  27  28
ATOM     28  C   UNL     1      23.493   4.698  48.992  0.00  0.00    +0.000 C 
BRANCH  28  29
ATOM     29  O   UNL     1      24.695   5.383  48.633  0.00  0.00    +0.000 OA
BRANCH  29  30
ATOM     30  C   UNL     1      25.813   5.286  49.507  0.00  0.00    +0.000 C 
BRANCH  30  32
ATOM     31  C   UNL     1      28.129   5.249  48.414  0.00  0.00    +0.000 C 
ATOM     32  C   UNL     1      26.994   4.441  49.025  0.00  0.00    +0.000 C 
ENDBRANCH  30  32
ENDBRANCH  29  30
ENDBRANCH  28  29
ENDBRANCH  27  28
ENDBRANCH   1  27
TORSDOF 9
ENDMDL
MODEL 4
REMARK VINA RESULT:    -7.123      2.021      6.646
REMARK INTER + INTRA:         -12.877
REMARK INTER:                 -11.261
REMARK INTRA:                  -1.616
REMARK UNBOUND:                -2.006
REMARK  Name = 
REMARK  11 active torsions:
REMARK  status: ('A' for Active; 'I' for Inactive)
REMARK    1  A    between atoms: C_1  and  C_2
REMARK    2  A    between atoms: C_2  and  C_3
REMARK    3  A    between atoms: C_3  and  O_4
REMARK    4  A    between atoms: O_4  and  C_5
REMARK    5  A    between atoms: C_5  and  C_6
REMARK    6  A    between atoms: C_6  and  N_7
REMARK    7  A    between atoms: C_9  and  C_10
REMARK    8  A    between atoms: C_19  and  C_20
REMARK    9  A    between atoms: C_23  and  C_24
REMARK   10  A    between atoms: C_27  and  O_28
REMARK   11  A    between atoms: O_28  and  C_29
REMARK                            x       y       z     vdW  Elec       q    Type
REMARK                         _______ _______ _______ _____ _____    ______ ____
ROOT
ATOM      1  N   UNL     1      23.254   3.740  52.766  0.00  0.00    +0.000 N 
ATOM      2  C   UNL     1      24.440   2.996  53.214  0.00  0.00    +0.000 C 
ATOM      3  C   UNL     1      25.205   2.586  51.956  0.00  0.00    +0.000 C 
ATOM      4  C   UNL     1      24.091   2.338  50.939  0.00  0.00    +0.000 C 
ATOM      5  C   UNL     1      22.900   3.197  51.429  0.00  0.00    +0.000 C 
ATOM      6  H   UNL     1      22.463   3.612  53.396  0.00  0.00    +0.000 HD
ENDROOT
BRANCH   3   7
ATOM      7  C   UNL     1      26.168   1.460  52.285  0.00  0.00    +0.000 A 
ATOM      8  C   UNL     1      25.843   0.089  52.140  0.00  0.00    +0.000 A 
ATOM      9  C   UNL     1      26.740  -0.916  52.525  0.00  0.00    +0.000 A 
ATOM     10  C   UNL     1      27.952  -0.533  53.049  0.00  0.00    +0.000 A 
ATOM     11  C   UNL     1      28.277   0.791  53.215  0.00  0.00    +0.000 A 
ATOM     12  C   UNL     1      27.411   1.802  52.853  0.00  0.00    +0.000 A 
ATOM     13  O   UNL     1      29.505   0.959  53.771  0.00  0.00    +0.000 OA
ATOM     14  C   UNL     1      29.960  -0.408  53.829  0.00  0.00    +0.000 C 
ATOM     15  O   UNL     1      28.943  -1.365  53.465  0.00  0.00    +0.000 OA
ENDBRANCH   3   7
BRANCH   5  16
ATOM     16  C   UNL     1      21.632   2.340  51.481  0.00  0.00    +0.000 A 
ATOM     17  C   UNL     1      20.364   2.894  51.720  0.00  0.00    +0.000 A 
ATOM     18  C   UNL     1      19.223   2.087  51.830  0.00  0.00    +0.000 A 
ATOM     19  C   UNL     1      19.331   0.704  51.706  0.00  0.00    +0.000 A 
ATOM     20  C   UNL     1      20.584   0.142  51.465  0.00  0.00    +0.000 A 
ATOM     21  C   UNL     1      21.726   0.947  51.356  0.00  0.00    +0.000 A 
BRANCH  19  22
ATOM     22  O   UNL     1      18.301  -0.191  51.809  0.00  0.00    +0.000 OA
ATOM     23  C   UNL     1      18.273  -1.005  52.975  0.00  0.00    +0.000 C 
ENDBRANCH  19  22
ENDBRANCH   5  16
BRANCH   4  24
ATOM     24  C   UNL     1      24.500   2.800  49.567  0.00  0.00    +0.000 C 
ATOM     25  O   UNL     1      25.626   3.086  49.201  0.00  0.00    +0.000 OA
ATOM     26  O   UNL     1      23.463   2.898  48.707  0.00  0.00    +0.000 OA
ENDBRANCH   4  24
BRANCH   1  27
ATOM     27  C   UNL     1      23.481   5.202  52.799  0.00  0.00    +0.000 C 
BRANCH  27  28
ATOM     28  C   UNL     1      23.639   5.854  51.406  0.00  0.00    +0.000 C 
BRANCH  28  29
ATOM     29  O   UNL     1      24.159   7.185  51.400  0.00  0.00    +0.000 OA
BRANCH  29  30
ATOM     30  C   UNL     1      25.154   7.517  50.439  0.00  0.00    +0.000 C 
BRANCH  30  32
ATOM     31  C   UNL     1      26.622   6.268  48.752  0.00  0.00    +0.000 C 
ATOM     32  C   UNL     1      25.213   6.648  49.181  0.00  0.00    +0.000 C 
ENDBRANCH  30  32
ENDBRANCH  29  30
ENDBRANCH  28  29
ENDBRANCH  27  28
ENDBRANCH   1  27
TORSDOF 9
ENDMDL
MODEL 5
REMARK VINA RESULT:    -7.051      2.400      7.607
REMARK INTER + INTRA:         -12.767
REMARK INTER:                 -10.939
REMARK INTRA:                  -1.828
REMARK UNBOUND:                -2.006
REMARK  Name = 
REMARK  11 active torsions:
REMARK  status: ('A' for Active; 'I' for Inactive)
REMARK    1  A    between atoms: C_1  and  C_2
REMARK    2  A    between atoms: C_2  and  C_3
REMARK    3  A    between atoms: C_3  and  O_4
REMARK    4  A    between atoms: O_4  and  C_5
REMARK    5  A    between atoms: C_5  and  C_6
REMARK    6  A    between atoms: C_6  and  N_7
REMARK    7  A    between atoms: C_9  and  C_10
REMARK    8  A    between atoms: C_19  and  C_20
REMARK    9  A    between atoms: C_23  and  C_24
REMARK   10  A    between atoms: C_27  and  O_28
REMARK   11  A    between atoms: O_28  and  C_29
REMARK                            x       y       z     vdW  Elec       q    Type
REMARK                         _______ _______ _______ _____ _____    ______ ____
ROOT
ATOM      1  N   UNL     1      22.732   1.745  49.528  0.00  0.00    +0.000 N 
ATOM      2  C   UNL     1      21.540   0.942  49.833  0.00  0.00    +0.000 C 
ATOM      3  C   UNL     1      20.733   1.724  50.868  0.00  0.00    +0.000 C 
ATOM      4  C   UNL     1      21.814   2.416  51.699  0.00  0.00    +0.000 C 
ATOM      5  C   UNL     1      23.039   2.522  50.757  0.00  0.00    +0.000 C 
ATOM      6  H   UNL     1      23.536   1.163  49.296  0.00  0.00    +0.000 HD
ENDROOT
BRANCH   3   7
ATOM      7  C   UNL     1      19.752   0.797  51.561  0.00  0.00    +0.000 A 
ATOM      8  C   UNL     1      20.038   0.123  52.773  0.00  0.00    +0.000 A 
ATOM      9  C   UNL     1      19.125  -0.778  53.338  0.00  0.00    +0.000 A 
ATOM     10  C   UNL     1      17.938  -0.992  52.678  0.00  0.00    +0.000 A 
ATOM     11  C   UNL     1      17.652  -0.363  51.491  0.00  0.00    +0.000 A 
ATOM     12  C   UNL     1      18.532   0.523  50.909  0.00  0.00    +0.000 A 
ATOM     13  O   UNL     1      16.443  -0.727  50.989  0.00  0.00    +0.000 OA
ATOM     14  C   UNL     1      15.955  -1.570  52.053  0.00  0.00    +0.000 C 
ATOM     15  O   UNL     1      16.937  -1.820  53.080  0.00  0.00    +0.000 OA
ENDBRANCH   3   7
BRANCH   5  16
ATOM     16  C   UNL     1      24.286   1.992  51.470  0.00  0.00    +0.000 A 
ATOM     17  C   UNL     1      24.210   1.070  52.527  0.00  0.00    +0.000 A 
ATOM     18  C   UNL     1      25.357   0.646  53.211  0.00  0.00    +0.000 A 
ATOM     19  C   UNL     1      26.609   1.143  52.852  0.00  0.00    +0.000 A 
ATOM     20  C   UNL     1      26.698   2.056  51.802  0.00  0.00    +0.000 A 
ATOM     21  C   UNL     1      25.552   2.482  51.118  0.00  0.00    +0.000 A 
BRANCH  19  22
ATOM     22  O   UNL     1      27.797   0.823  53.449  0.00  0.00    +0.000 OA
ATOM     23  C   UNL     1      28.718   1.887  53.655  0.00  0.00    +0.000 C 
ENDBRANCH  19  22
ENDBRANCH   5  16
BRANCH   4  24
ATOM     24  C   UNL     1      21.382   3.799  52.103  0.00  0.00    +0.000 C 
ATOM     25  O   UNL     1      22.054   4.631  52.686  0.00  0.00    +0.000 OA
ATOM     26  O   UNL     1      20.103   4.077  51.765  0.00  0.00    +0.000 OA
ENDBRANCH   4  24
BRANCH   1  27
ATOM     27  C   UNL     1      22.544   2.565  48.311  0.00  0.00    +0.000 C 
BRANCH  27  28
ATOM     28  C   UNL     1      22.511   4.090  48.566  0.00  0.00    +0.000 C 
BRANCH  28  29
ATOM     29  O   UNL     1      23.748   4.777  48.373  0.00  0.00    +0.000 OA
BRANCH  29  30
ATOM     30  C   UNL     1      24.089   5.820  49.278  0.00  0.00    +0.000 C 
BRANCH  30  32
ATOM     31  C   UNL     1      26.552   5.240  48.876  0.00  0.00    +0.000 C 
ATOM     32  C   UNL     1      25.515   5.812  49.832  0.00  0.00    +0.000 C 
ENDBRANCH  30  32
ENDBRANCH  29  30
ENDBRANCH  28  29
ENDBRANCH  27  28
ENDBRANCH   1  27
TORSDOF 9
ENDMDL
MODEL 6
REMARK VINA RESULT:    -7.027      2.533      6.390
REMARK INTER + INTRA:         -12.730
REMARK INTER:                 -10.492
REMARK INTRA:                  -2.239
REMARK UNBOUND:                -2.006
REMARK  Name = 
REMARK  11 active torsions:
REMARK  status: ('A' for Active; 'I' for Inactive)
REMARK    1  A    between atoms: C_1  and  C_2
REMARK    2  A    between atoms: C_2  and  C_3
REMARK    3  A    between atoms: C_3  and  O_4
REMARK    4  A    between atoms: O_4  and  C_5
REMARK    5  A    between atoms: C_5  and  C_6
REMARK    6  A    between atoms: C_6  and  N_7
REMARK    7  A    between atoms: C_9  and  C_10
REMARK    8  A    between atoms: C_19  and  C_20
REMARK    9  A    between atoms: C_23  and  C_24
REMARK   10  A    between atoms: C_27  and  O_28
REMARK   11  A    between atoms: O_28  and  C_29
REMARK                            x       y       z     vdW  Elec       q    Type
REMARK                         _______ _______ _______ _____ _____    ______ ____
ROOT
ATOM      1  N   UNL     1      20.909   3.628  51.670  0.00  0.00    +0.000 N 
ATOM      2  C   UNL     1      22.297   3.550  52.145  0.00  0.00    +0.000 C 
ATOM      3  C   UNL     1      23.104   2.869  51.041  0.00  0.00    +0.000 C 
ATOM      4  C   UNL     1      22.106   1.876  50.447  0.00  0.00    +0.000 C 
ATOM      5  C   UNL     1      20.712   2.467  50.764  0.00  0.00    +0.000 C 
ATOM      6  H   UNL     1      20.239   3.567  52.436  0.00  0.00    +0.000 HD
ENDROOT
BRANCH   3   7
ATOM      7  C   UNL     1      24.412   2.349  51.609  0.00  0.00    +0.000 A 
ATOM      8  C   UNL     1      25.672   2.583  51.005  0.00  0.00    +0.000 A 
ATOM      9  C   UNL     1      26.845   2.023  51.528  0.00  0.00    +0.000 A 
ATOM     10  C   UNL     1      26.739   1.235  52.649  0.00  0.00    +0.000 A 
ATOM     11  C   UNL     1      25.524   0.981  53.237  0.00  0.00    +0.000 A 
ATOM     12  C   UNL     1      24.353   1.512  52.741  0.00  0.00    +0.000 A 
ATOM     13  O   UNL     1      25.630   0.162  54.316  0.00  0.00    +0.000 OA
ATOM     14  C   UNL     1      27.063   0.023  54.406  0.00  0.00    +0.000 C 
ATOM     15  O   UNL     1      27.765   0.620  53.295  0.00  0.00    +0.000 OA
ENDBRANCH   3   7
BRANCH   5  16
ATOM     16  C   UNL     1      19.826   1.392  51.400  0.00  0.00    +0.000 A 
ATOM     17  C   UNL     1      20.277   0.575  52.449  0.00  0.00    +0.000 A 
ATOM     18  C   UNL     1      19.476  -0.448  52.974  0.00  0.00    +0.000 A 
ATOM     19  C   UNL     1      18.204  -0.677  52.454  0.00  0.00    +0.000 A 
ATOM     20  C   UNL     1      17.743   0.129  51.414  0.00  0.00    +0.000 A 
ATOM     21  C   UNL     1      18.543   1.152  50.887  0.00  0.00    +0.000 A 
BRANCH  19  22
ATOM     22  O   UNL     1      17.335  -1.650  52.866  0.00  0.00    +0.000 OA
ATOM     23  C   UNL     1      17.864  -2.669  53.706  0.00  0.00    +0.000 C 
ENDBRANCH  19  22
ENDBRANCH   5  16
BRANCH   4  24
ATOM     24  C   UNL     1      22.271   1.774  48.955  0.00  0.00    +0.000 C 
ATOM     25  O   UNL     1      22.974   2.476  48.250  0.00  0.00    +0.000 OA
ATOM     26  O   UNL     1      21.525   0.791  48.403  0.00  0.00    +0.000 OA
ENDBRANCH   4  24
BRANCH   1  27
ATOM     27  C   UNL     1      20.611   4.944  51.063  0.00  0.00    +0.000 C 
BRANCH  27  28
ATOM     28  C   UNL     1      20.165   4.878  49.584  0.00  0.00    +0.000 C 
BRANCH  28  29
ATOM     29  O   UNL     1      21.170   5.191  48.618  0.00  0.00    +0.000 OA
BRANCH  29  30
ATOM     30  C   UNL     1      22.162   6.150  48.964  0.00  0.00    +0.000 C 
BRANCH  30  32
ATOM     31  C   UNL     1      24.639   5.500  48.909  0.00  0.00    +0.000 C 
ATOM     32  C   UNL     1      23.464   6.115  48.162  0.00  0.00    +0.000 C 
ENDBRANCH  30  32
ENDBRANCH  29  30
ENDBRANCH  28  29
ENDBRANCH  27  28
ENDBRANCH   1  27
TORSDOF 9
ENDMDL
MODEL 7
REMARK VINA RESULT:    -7.001      2.017      7.040
REMARK INTER + INTRA:         -12.690
REMARK INTER:                 -10.756
REMARK INTRA:                  -1.935
REMARK UNBOUND:                -2.006
REMARK  Name = 
REMARK  11 active torsions:
REMARK  status: ('A' for Active; 'I' for Inactive)
REMARK    1  A    between atoms: C_1  and  C_2
REMARK    2  A    between atoms: C_2  and  C_3
REMARK    3  A    between atoms: C_3  and  O_4
REMARK    4  A    between atoms: O_4  and  C_5
REMARK    5  A    between atoms: C_5  and  C_6
REMARK    6  A    between atoms: C_6  and  N_7
REMARK    7  A    between atoms: C_9  and  C_10
REMARK    8  A    between atoms: C_19  and  C_20
REMARK    9  A    between atoms: C_23  and  C_24
REMARK   10  A    between atoms: C_27  and  O_28
REMARK   11  A    between atoms: O_28  and  C_29
REMARK                            x       y       z     vdW  Elec       q    Type
REMARK                         _______ _______ _______ _____ _____    ______ ____
ROOT
ATOM      1  N   UNL     1      23.322   3.840  48.695  0.00  0.00    +0.000 N 
ATOM      2  C   UNL     1      23.461   2.548  49.381  0.00  0.00    +0.000 C 
ATOM      3  C   UNL     1      23.387   2.833  50.880  0.00  0.00    +0.000 C 
ATOM      4  C   UNL     1      24.056   4.202  51.005  0.00  0.00    +0.000 C 
ATOM      5  C   UNL     1      23.879   4.864  49.617  0.00  0.00    +0.000 C 
ATOM      6  H   UNL     1      23.842   3.866  47.819  0.00  0.00    +0.000 HD
ENDROOT
BRANCH   3   7
ATOM      7  C   UNL     1      23.960   1.660  51.654  0.00  0.00    +0.000 A 
ATOM      8  C   UNL     1      23.179   0.813  52.478  0.00  0.00    +0.000 A 
ATOM      9  C   UNL     1      23.765  -0.215  53.229  0.00  0.00    +0.000 A 
ATOM     10  C   UNL     1      25.127  -0.380  53.143  0.00  0.00    +0.000 A 
ATOM     11  C   UNL     1      25.903   0.444  52.364  0.00  0.00    +0.000 A 
ATOM     12  C   UNL     1      25.356   1.467  51.621  0.00  0.00    +0.000 A 
ATOM     13  O   UNL     1      27.224   0.132  52.435  0.00  0.00    +0.000 OA
ATOM     14  C   UNL     1      27.175  -1.052  53.258  0.00  0.00    +0.000 C 
ATOM     15  O   UNL     1      25.862  -1.324  53.789  0.00  0.00    +0.000 OA
ENDBRANCH   3   7
BRANCH   5  16
ATOM     16  C   UNL     1      25.226   5.400  49.124  0.00  0.00    +0.000 A 
ATOM     17  C   UNL     1      25.349   6.646  48.487  0.00  0.00    +0.000 A 
ATOM     18  C   UNL     1      26.579   7.091  47.984  0.00  0.00    +0.000 A 
ATOM     19  C   UNL     1      27.714   6.292  48.104  0.00  0.00    +0.000 A 
ATOM     20  C   UNL     1      27.606   5.054  48.737  0.00  0.00    +0.000 A 
ATOM     21  C   UNL     1      26.377   4.607  49.240  0.00  0.00    +0.000 A 
BRANCH  19  22
ATOM     22  O   UNL     1      28.963   6.603  47.642  0.00  0.00    +0.000 OA
ATOM     23  C   UNL     1      30.016   5.712  47.990  0.00  0.00    +0.000 C 
ENDBRANCH  19  22
ENDBRANCH   5  16
BRANCH   4  24
ATOM     24  C   UNL     1      23.370   5.045  52.044  0.00  0.00    +0.000 C 
ATOM     25  O   UNL     1      23.596   5.053  53.241  0.00  0.00    +0.000 OA
ATOM     26  O   UNL     1      22.406   5.842  51.532  0.00  0.00    +0.000 OA
ENDBRANCH   4  24
BRANCH   1  27
ATOM     27  C   UNL     1      21.926   4.087  48.269  0.00  0.00    +0.000 C 
BRANCH  27  28
ATOM     28  C   UNL     1      21.793   4.900  46.960  0.00  0.00    +0.000 C 
BRANCH  28  29
ATOM     29  O   UNL     1      21.054   6.119  47.060  0.00  0.00    +0.000 OA
BRANCH  29  30
ATOM     30  C   UNL     1      21.087   6.828  48.292  0.00  0.00    +0.000 C 
BRANCH  30  32
ATOM     31  C   UNL     1      22.460   8.670  49.425  0.00  0.00    +0.000 C 
ATOM     32  C   UNL     1      21.589   8.273  48.242  0.00  0.00    +0.000 C 
ENDBRANCH  30  32
ENDBRANCH  29  30
ENDBRANCH  28  29
ENDBRANCH  27  28
ENDBRANCH   1  27
TORSDOF 9
ENDMDL
MODEL 8
REMARK VINA RESULT:    -6.848      1.803      2.231
REMARK INTER + INTRA:         -12.457
REMARK INTER:                 -10.721
REMARK INTRA:                  -1.736
REMARK UNBOUND:                -2.006
REMARK  Name = 
REMARK  11 active torsions:
REMARK  status: ('A' for Active; 'I' for Inactive)
REMARK    1  A    between atoms: C_1  and  C_2
REMARK    2  A    between atoms: C_2  and  C_3
REMARK    3  A    between atoms: C_3  and  O_4
REMARK    4  A    between atoms: O_4  and  C_5
REMARK    5  A    between atoms: C_5  and  C_6
REMARK    6  A    between atoms: C_6  and  N_7
REMARK    7  A    between atoms: C_9  and  C_10
REMARK    8  A    between atoms: C_19  and  C_20
REMARK    9  A    between atoms: C_23  and  C_24
REMARK   10  A    between atoms: C_27  and  O_28
REMARK   11  A    between atoms: O_28  and  C_29
REMARK                            x       y       z     vdW  Elec       q    Type
REMARK                         _______ _______ _______ _____ _____    ______ ____
ROOT
ATOM      1  N   UNL     1      21.690   3.050  52.610  0.00  0.00    +0.000 N 
ATOM      2  C   UNL     1      21.892   4.468  52.280  0.00  0.00    +0.000 C 
ATOM      3  C   UNL     1      22.338   4.522  50.819  0.00  0.00    +0.000 C 
ATOM      4  C   UNL     1      23.164   3.246  50.662  0.00  0.00    +0.000 C 
ATOM      5  C   UNL     1      22.627   2.283  51.749  0.00  0.00    +0.000 C 
ATOM      6  H   UNL     1      21.900   2.851  53.587  0.00  0.00    +0.000 HD
ENDROOT
BRANCH   3   7
ATOM      7  C   UNL     1      22.991   5.862  50.532  0.00  0.00    +0.000 A 
ATOM      8  C   UNL     1      22.266   7.014  50.138  0.00  0.00    +0.000 A 
ATOM      9  C   UNL     1      22.921   8.210  49.815  0.00  0.00    +0.000 A 
ATOM     10  C   UNL     1      24.293   8.234  49.891  0.00  0.00    +0.000 A 
ATOM     11  C   UNL     1      25.014   7.122  50.251  0.00  0.00    +0.000 A 
ATOM     12  C   UNL     1      24.398   5.930  50.568  0.00  0.00    +0.000 A 
ATOM     13  O   UNL     1      26.354   7.345  50.241  0.00  0.00    +0.000 OA
ATOM     14  C   UNL     1      26.387   8.756  49.943  0.00  0.00    +0.000 C 
ATOM     15  O   UNL     1      25.091   9.303  49.624  0.00  0.00    +0.000 OA
ENDBRANCH   3   7
BRANCH   5  16
ATOM     16  C   UNL     1      23.796   1.707  52.553  0.00  0.00    +0.000 A 
ATOM     17  C   UNL     1      24.782   2.524  53.130  0.00  0.00    +0.000 A 
ATOM     18  C   UNL     1      25.881   1.977  53.806  0.00  0.00    +0.000 A 
ATOM     19  C   UNL     1      26.018   0.595  53.914  0.00  0.00    +0.000 A 
ATOM     20  C   UNL     1      25.044  -0.227  53.349  0.00  0.00    +0.000 A 
ATOM     21  C   UNL     1      23.945   0.318  52.672  0.00  0.00    +0.000 A 
BRANCH  19  22
ATOM     22  O   UNL     1      27.047  -0.061  54.531  0.00  0.00    +0.000 OA
ATOM     23  C   UNL     1      28.309   0.595  54.545  0.00  0.00    +0.000 C 
ENDBRANCH  19  22
ENDBRANCH   5  16
BRANCH   4  24
ATOM     24  C   UNL     1      22.949   2.628  49.307  0.00  0.00    +0.000 C 
ATOM     25  O   UNL     1      22.413   1.560  49.071  0.00  0.00    +0.000 OA
ATOM     26  O   UNL     1      23.436   3.380  48.296  0.00  0.00    +0.000 OA
ENDBRANCH   4  24
BRANCH   1  27
ATOM     27  C   UNL     1      20.269   2.656  52.480  0.00  0.00    +0.000 C 
BRANCH  27  28
ATOM     28  C   UNL     1      20.002   1.574  51.407  0.00  0.00    +0.000 C 
BRANCH  28  29
ATOM     29  O   UNL     1      20.260   0.227  51.807  0.00  0.00    +0.000 OA
BRANCH  29  30
ATOM     30  C   UNL     1      19.538  -0.298  52.914  0.00  0.00    +0.000 C 
BRANCH  30  32
ATOM     31  C   UNL     1      21.296  -0.119  54.769  0.00  0.00    +0.000 C 
ATOM     32  C   UNL     1      20.353  -1.022  53.987  0.00  0.00    +0.000 C 
ENDBRANCH  30  32
ENDBRANCH  29  30
ENDBRANCH  28  29
ENDBRANCH  27  28
ENDBRANCH   1  27
TORSDOF 9
ENDMDL
MODEL 9
REMARK VINA RESULT:    -6.649      2.884      7.303
REMARK INTER + INTRA:         -12.153
REMARK INTER:                  -9.996
REMARK INTRA:                  -2.157
REMARK UNBOUND:                -2.006
REMARK  Name = 
REMARK  11 active torsions:
REMARK  status: ('A' for Active; 'I' for Inactive)
REMARK    1  A    between atoms: C_1  and  C_2
REMARK    2  A    between atoms: C_2  and  C_3
REMARK    3  A    between atoms: C_3  and  O_4
REMARK    4  A    between atoms: O_4  and  C_5
REMARK    5  A    between atoms: C_5  and  C_6
REMARK    6  A    between atoms: C_6  and  N_7
REMARK    7  A    between atoms: C_9  and  C_10
REMARK    8  A    between atoms: C_19  and  C_20
REMARK    9  A    between atoms: C_23  and  C_24
REMARK   10  A    between atoms: C_27  and  O_28
REMARK   11  A    between atoms: O_28  and  C_29
REMARK                            x       y       z     vdW  Elec       q    Type
REMARK                         _______ _______ _______ _____ _____    ______ ____
ROOT
ATOM      1  N   UNL     1      22.779   1.969  49.307  0.00  0.00    +0.000 N 
ATOM      2  C   UNL     1      21.536   1.192  49.417  0.00  0.00    +0.000 C 
ATOM      3  C   UNL     1      20.699   1.851  50.513  0.00  0.00    +0.000 C 
ATOM      4  C   UNL     1      21.753   2.351  51.499  0.00  0.00    +0.000 C 
ATOM      5  C   UNL     1      23.039   2.534  50.656  0.00  0.00    +0.000 C 
ATOM      6  H   UNL     1      23.570   1.387  49.034  0.00  0.00    +0.000 HD
ENDROOT
BRANCH   3   7
ATOM      7  C   UNL     1      19.636   0.882  50.998  0.00  0.00    +0.000 A 
ATOM      8  C   UNL     1      18.337   0.806  50.440  0.00  0.00    +0.000 A 
ATOM      9  C   UNL     1      17.367  -0.056  50.969  0.00  0.00    +0.000 A 
ATOM     10  C   UNL     1      17.713  -0.829  52.051  0.00  0.00    +0.000 A 
ATOM     11  C   UNL     1      18.961  -0.754  52.619  0.00  0.00    +0.000 A 
ATOM     12  C   UNL     1      19.933   0.089  52.124  0.00  0.00    +0.000 A 
ATOM     13  O   UNL     1      19.095  -1.578  53.691  0.00  0.00    +0.000 OA
ATOM     14  C   UNL     1      17.825  -2.261  53.662  0.00  0.00    +0.000 C 
ATOM     15  O   UNL     1      16.908  -1.722  52.687  0.00  0.00    +0.000 OA
ENDBRANCH   3   7
BRANCH   5  16
ATOM     16  C   UNL     1      24.214   1.838  51.348  0.00  0.00    +0.000 A 
ATOM     17  C   UNL     1      24.028   0.834  52.312  0.00  0.00    +0.000 A 
ATOM     18  C   UNL     1      25.113   0.254  52.983  0.00  0.00    +0.000 A 
ATOM     19  C   UNL     1      26.412   0.674  52.704  0.00  0.00    +0.000 A 
ATOM     20  C   UNL     1      26.611   1.668  51.747  0.00  0.00    +0.000 A 
ATOM     21  C   UNL     1      25.527   2.249  51.076  0.00  0.00    +0.000 A 
BRANCH  19  22
ATOM     22  O   UNL     1      27.550   0.202  53.299  0.00  0.00    +0.000 OA
ATOM     23  C   UNL     1      28.378   1.159  53.948  0.00  0.00    +0.000 C 
ENDBRANCH  19  22
ENDBRANCH   5  16
BRANCH   4  24
ATOM     24  C   UNL     1      21.356   3.679  52.086  0.00  0.00    +0.000 C 
ATOM     25  O   UNL     1      20.227   4.128  52.173  0.00  0.00    +0.000 OA
ATOM     26  O   UNL     1      22.408   4.401  52.530  0.00  0.00    +0.000 OA
ENDBRANCH   4  24
BRANCH   1  27
ATOM     27  C   UNL     1      22.703   2.971  48.221  0.00  0.00    +0.000 C 
BRANCH  27  28
ATOM     28  C   UNL     1      23.162   4.390  48.630  0.00  0.00    +0.000 C 
BRANCH  28  29
ATOM     29  O   UNL     1      22.270   5.453  48.287  0.00  0.00    +0.000 OA
BRANCH  29  30
ATOM     30  C   UNL     1      21.427   5.981  49.304  0.00  0.00    +0.000 C 
BRANCH  30  32
ATOM     31  C   UNL     1      19.291   4.669  48.779  0.00  0.00    +0.000 C 
ATOM     32  C   UNL     1      19.929   6.032  48.999  0.00  0.00    +0.000 C 
ENDBRANCH  30  32
ENDBRANCH  29  30
ENDBRANCH  28  29
ENDBRANCH  27  28
ENDBRANCH   1  27
TORSDOF 9
ENDMDL
