MODEL 1
REMARK VINA RESULT:    -8.793      0.000      0.000
REMARK INTER + INTRA:         -14.215
REMARK INTER:                 -12.905
REMARK INTRA:                  -1.310
REMARK UNBOUND:                -1.310
REMARK  Name = 
REMARK  10 active torsions:
REMARK  status: ('A' for Active; 'I' for Inactive)
REMARK    1  A    between atoms: C_1  and  C_2
REMARK    2  A    between atoms: C_2  and  C_3
REMARK    3  A    between atoms: C_3  and  C_4
REMARK    4  A    between atoms: C_4  and  C_5
REMARK    5  A    between atoms: C_5  and  C_15
REMARK    6  A    between atoms: C_6  and  C_7
REMARK    7  A    between atoms: C_7  and  N_8
REMARK    8  A    between atoms: C_19  and  O_20
REMARK    9  A    between atoms: O_20  and  C_21
REMARK   10  A    between atoms: C_24  and  C_25
REMARK                            x       y       z     vdW  Elec       q    Type
REMARK                         _______ _______ _______ _____ _____    ______ ____
ROOT
ATOM      1  C   UNL     1      23.130   1.050  51.765  0.00  0.00    +0.000 C 
ATOM      2  C   UNL     1      24.396   0.855  52.202  0.00  0.00    +0.000 C 
ENDROOT
BRANCH   1   3
ATOM      3  C   UNL     1      22.921   2.019  50.643  0.00  0.00    +0.000 A 
ATOM      4  C   UNL     1      22.090   1.691  49.560  0.00  0.00    +0.000 A 
ATOM      5  C   UNL     1      22.022   2.498  48.424  0.00  0.00    +0.000 A 
ATOM      6  C   UNL     1      22.757   3.673  48.365  0.00  0.00    +0.000 A 
ATOM      7  C   UNL     1      23.446   4.115  49.495  0.00  0.00    +0.000 A 
ATOM      8  C   UNL     1      23.575   3.269  50.605  0.00  0.00    +0.000 A 
BRANCH   7   9
ATOM      9  O   UNL     1      24.027   5.368  49.578  0.00  0.00    +0.000 OA
BRANCH   9  10
ATOM     10  C   UNL     1      25.305   5.534  49.072  0.00  0.00    +0.000 A 
ATOM     11  C   UNL     1      26.307   4.560  49.153  0.00  0.00    +0.000 A 
ATOM     12  C   UNL     1      27.614   4.855  48.764  0.00  0.00    +0.000 A 
ATOM     13  C   UNL     1      27.920   6.102  48.213  0.00  0.00    +0.000 A 
ATOM     14  C   UNL     1      29.330   6.441  47.830  0.00  0.00    +0.000 C 
ATOM     15  C   UNL     1      26.887   7.029  48.015  0.00  0.00    +0.000 A 
ATOM     16  C   UNL     1      25.586   6.749  48.448  0.00  0.00    +0.000 A 
ENDBRANCH   9  10
ENDBRANCH   7   9
ENDBRANCH   1   3
BRANCH   1  17
ATOM     17  C   UNL     1      21.965   0.182  52.220  0.00  0.00    +0.000 C 
BRANCH  17  18
ATOM     18  C   UNL     1      21.121   0.759  53.362  0.00  0.00    +0.000 C 
BRANCH  18  20
ATOM     19  C   UNL     1      21.637  -1.488  54.371  0.00  0.00    +0.000 C 
ATOM     20  C   UNL     1      21.151  -0.071  54.645  0.00  0.00    +0.000 C 
ENDBRANCH  18  20
ENDBRANCH  17  18
ENDBRANCH   1  17
BRANCH   2  21
ATOM     21  C   UNL     1      24.889  -0.163  53.196  0.00  0.00    +0.000 C 
BRANCH  21  22
ATOM     22  N   UNL     1      26.336  -0.147  53.139  0.00  0.00    +0.000 N 
ATOM     23  O   UNL     1      26.980   0.591  54.184  0.00  0.00    +0.000 OA
ATOM     24  C   UNL     1      28.200  -0.005  54.395  0.00  0.00    +0.000 A 
ATOM     25  O   UNL     1      29.016   0.358  55.228  0.00  0.00    +0.000 OA
ATOM     26  N   UNL     1      28.306  -1.068  53.576  0.00  0.00    +0.000 N 
ATOM     27  C   UNL     1      27.120  -1.283  52.971  0.00  0.00    +0.000 A 
ATOM     28  O   UNL     1      26.793  -2.327  52.430  0.00  0.00    +0.000 OA
ATOM     29  H   UNL     1      29.120  -1.603  53.440  0.00  0.00    +0.000 HD
ENDBRANCH  21  22
ENDBRANCH   2  21
TORSDOF 8
ENDMDL
MODEL 2
REMARK VINA RESULT:    -8.602      2.590      6.704
REMARK INTER + INTRA:         -13.934
REMARK INTER:                 -12.240
REMARK INTRA:                  -1.695
REMARK UNBOUND:                -1.310
REMARK  Name = 
REMARK  10 active torsions:
REMARK  status: ('A' for Active; 'I' for Inactive)
REMARK    1  A    between atoms: C_1  and  C_2
REMARK    2  A    between atoms: C_2  and  C_3
REMARK    3  A    between atoms: C_3  and  C_4
REMARK    4  A    between atoms: C_4  and  C_5
REMARK    5  A    between atoms: C_5  and  C_15
REMARK    6  A    between atoms: C_6  and  C_7
REMARK    7  A    between atoms: C_7  and  N_8
REMARK    8  A    between atoms: C_19  and  O_20
REMARK    9  A    between atoms: O_20  and  C_21
REMARK   10  A    between atoms: C_24  and  C_25
REMARK                            x       y       z     vdW  Elec       q    Type
REMARK                         _______ _______ _______ _____ _____    ______ ____
ROOT
ATOM      1  C   UNL     1      23.271   3.047  51.069  0.00  0.00    +0.000 C 
ATOM      2  C   UNL     1      23.650   3.084  49.770  0.00  0.00    +0.000 C 
ENDROOT
BRANCH   1   3
ATOM      3  C   UNL     1      23.072   1.705  51.701  0.00  0.00    +0.000 A 
ATOM      4  C   UNL     1      22.040   0.856  51.268  0.00  0.00    +0.000 A 
ATOM      5  C   UNL     1      21.723  -0.314  51.957  0.00  0.00    +0.000 A 
ATOM      6  C   UNL     1      22.459  -0.681  53.073  0.00  0.00    +0.000 A 
ATOM      7  C   UNL     1      23.602   0.043  53.417  0.00  0.00    +0.000 A 
ATOM      8  C   UNL     1      23.873   1.257  52.772  0.00  0.00    +0.000 A 
BRANCH   7   9
ATOM      9  O   UNL     1      24.496  -0.379  54.384  0.00  0.00    +0.000 OA
BRANCH   9  10
ATOM     10  C   UNL     1      25.842  -0.420  54.061  0.00  0.00    +0.000 A 
ATOM     11  C   UNL     1      26.374  -1.212  53.038  0.00  0.00    +0.000 A 
ATOM     12  C   UNL     1      27.755  -1.322  52.873  0.00  0.00    +0.000 A 
ATOM     13  C   UNL     1      28.622  -0.578  53.677  0.00  0.00    +0.000 A 
ATOM     14  C   UNL     1      30.108  -0.721  53.533  0.00  0.00    +0.000 C 
ATOM     15  C   UNL     1      28.081   0.313  54.615  0.00  0.00    +0.000 A 
ATOM     16  C   UNL     1      26.697   0.387  54.811  0.00  0.00    +0.000 A 
ENDBRANCH   9  10
ENDBRANCH   7   9
ENDBRANCH   1   3
BRANCH   1  17
ATOM     17  C   UNL     1      23.246   4.290  51.948  0.00  0.00    +0.000 C 
BRANCH  17  18
ATOM     18  C   UNL     1      21.853   4.773  52.367  0.00  0.00    +0.000 C 
BRANCH  18  20
ATOM     19  C   UNL     1      19.694   3.620  51.780  0.00  0.00    +0.000 C 
ATOM     20  C   UNL     1      20.775   4.578  51.300  0.00  0.00    +0.000 C 
ENDBRANCH  18  20
ENDBRANCH  17  18
ENDBRANCH   1  17
BRANCH   2  21
ATOM     21  C   UNL     1      24.060   4.282  48.956  0.00  0.00    +0.000 C 
BRANCH  21  22
ATOM     22  N   UNL     1      25.355   4.706  49.446  0.00  0.00    +0.000 N 
ATOM     23  O   UNL     1      26.480   4.152  48.755  0.00  0.00    +0.000 OA
ATOM     24  C   UNL     1      27.492   5.080  48.840  0.00  0.00    +0.000 A 
ATOM     25  O   UNL     1      28.602   4.943  48.348  0.00  0.00    +0.000 OA
ATOM     26  N   UNL     1      27.030   6.159  49.497  0.00  0.00    +0.000 N 
ATOM     27  C   UNL     1      25.701   6.032  49.683  0.00  0.00    +0.000 A 
ATOM     28  O   UNL     1      24.943   6.951  49.950  0.00  0.00    +0.000 OA
ATOM     29  H   UNL     1      27.577   6.920  49.796  0.00  0.00    +0.000 HD
ENDBRANCH  21  22
ENDBRANCH   2  21
TORSDOF 8
ENDMDL
MODEL 3
REMARK VINA RESULT:    -8.502      1.535      2.189
REMARK INTER + INTRA:         -13.788
REMARK INTER:                 -12.429
REMARK INTRA:                  -1.359
REMARK UNBOUND:                -1.310
REMARK  Name = 
REMARK  10 active torsions:
REMARK  status: ('A' for Active; 'I' for Inactive)
REMARK    1  A    between atoms: C_1  and  C_2
REMARK    2  A    between atoms: C_2  and  C_3
REMARK    3  A    between atoms: C_3  and  C_4
REMARK    4  A    between atoms: C_4  and  C_5
REMARK    5  A    between atoms: C_5  and  C_15
REMARK    6  A    between atoms: C_6  and  C_7
REMARK    7  A    between atoms: C_7  and  N_8
REMARK    8  A    between atoms: C_19  and  O_20
REMARK    9  A    between atoms: O_20  and  C_21
REMARK   10  A    between atoms: C_24  and  C_25
REMARK                            x       y       z     vdW  Elec       q    Type
REMARK                         _______ _______ _______ _____ _____    ______ ____
ROOT
ATOM      1  C   UNL     1      24.707   1.857  52.975  0.00  0.00    +0.000 C 
ATOM      2  C   UNL     1      25.737   1.804  53.851  0.00  0.00    +0.000 C 
ENDROOT
BRANCH   1   3
ATOM      3  C   UNL     1      24.463   3.151  52.262  0.00  0.00    +0.000 A 
ATOM      4  C   UNL     1      23.842   4.224  52.920  0.00  0.00    +0.000 A 
ATOM      5  C   UNL     1      23.443   5.369  52.231  0.00  0.00    +0.000 A 
ATOM      6  C   UNL     1      23.693   5.480  50.871  0.00  0.00    +0.000 A 
ATOM      7  C   UNL     1      24.468   4.512  50.229  0.00  0.00    +0.000 A 
ATOM      8  C   UNL     1      24.802   3.331  50.904  0.00  0.00    +0.000 A 
BRANCH   7   9
ATOM      9  O   UNL     1      24.930   4.659  48.933  0.00  0.00    +0.000 OA
BRANCH   9  10
ATOM     10  C   UNL     1      26.117   5.341  48.733  0.00  0.00    +0.000 A 
ATOM     11  C   UNL     1      26.193   6.717  48.483  0.00  0.00    +0.000 A 
ATOM     12  C   UNL     1      27.408   7.307  48.135  0.00  0.00    +0.000 A 
ATOM     13  C   UNL     1      28.580   6.546  48.111  0.00  0.00    +0.000 A 
ATOM     14  C   UNL     1      29.882   7.164  47.699  0.00  0.00    +0.000 C 
ATOM     15  C   UNL     1      28.521   5.197  48.487  0.00  0.00    +0.000 A 
ATOM     16  C   UNL     1      27.294   4.595  48.791  0.00  0.00    +0.000 A 
ENDBRANCH   9  10
ENDBRANCH   7   9
ENDBRANCH   1   3
BRANCH   1  17
ATOM     17  C   UNL     1      23.938   0.617  52.542  0.00  0.00    +0.000 C 
BRANCH  17  18
ATOM     18  C   UNL     1      22.658   0.326  53.333  0.00  0.00    +0.000 C 
BRANCH  18  20
ATOM     19  C   UNL     1      21.393  -1.411  54.644  0.00  0.00    +0.000 C 
ATOM     20  C   UNL     1      22.768  -0.861  54.290  0.00  0.00    +0.000 C 
ENDBRANCH  18  20
ENDBRANCH  17  18
ENDBRANCH   1  17
BRANCH   2  21
ATOM     21  C   UNL     1      26.283   0.600  54.571  0.00  0.00    +0.000 C 
BRANCH  21  22
ATOM     22  N   UNL     1      27.347   0.061  53.751  0.00  0.00    +0.000 N 
ATOM     23  O   UNL     1      28.658   0.141  54.320  0.00  0.00    +0.000 OA
ATOM     24  C   UNL     1      29.373  -0.922  53.820  0.00  0.00    +0.000 A 
ATOM     25  O   UNL     1      30.534  -1.172  54.104  0.00  0.00    +0.000 OA
ATOM     26  N   UNL     1      28.564  -1.647  53.027  0.00  0.00    +0.000 N 
ATOM     27  C   UNL     1      27.301  -1.188  53.140  0.00  0.00    +0.000 A 
ATOM     28  O   UNL     1      26.302  -1.809  52.813  0.00  0.00    +0.000 OA
ATOM     29  H   UNL     1      28.850  -2.394  52.453  0.00  0.00    +0.000 HD
ENDBRANCH  21  22
ENDBRANCH   2  21
TORSDOF 8
ENDMDL
MODEL 4
REMARK VINA RESULT:    -8.436      3.118      7.970
REMARK INTER + INTRA:         -13.692
REMARK INTER:                 -12.284
REMARK INTRA:                  -1.408
REMARK UNBOUND:                -1.310
REMARK  Name = 
REMARK  10 active torsions:
REMARK  status: ('A' for Active; 'I' for Inactive)
REMARK    1  A    between atoms: C_1  and  C_2
REMARK    2  A    between atoms: C_2  and  C_3
REMARK    3  A    between atoms: C_3  and  C_4
REMARK    4  A    between atoms: C_4  and  C_5
REMARK    5  A    between atoms: C_5  and  C_15
REMARK    6  A    between atoms: C_6  and  C_7
REMARK    7  A    between atoms: C_7  and  N_8
REMARK    8  A    between atoms: C_19  and  O_20
REMARK    9  A    between atoms: O_20  and  C_21
REMARK   10  A    between atoms: C_24  and  C_25
REMARK                            x       y       z     vdW  Elec       q    Type
REMARK                         _______ _______ _______ _____ _____    ______ ____
ROOT
ATOM      1  C   UNL     1      23.845   3.345  51.066  0.00  0.00    +0.000 C 
ATOM      2  C   UNL     1      23.387   4.451  51.697  0.00  0.00    +0.000 C 
ENDROOT
BRANCH   1   3
ATOM      3  C   UNL     1      23.404   2.012  51.584  0.00  0.00    +0.000 A 
ATOM      4  C   UNL     1      22.330   1.332  50.987  0.00  0.00    +0.000 A 
ATOM      5  C   UNL     1      21.787   0.182  51.559  0.00  0.00    +0.000 A 
ATOM      6  C   UNL     1      22.335  -0.336  52.723  0.00  0.00    +0.000 A 
ATOM      7  C   UNL     1      23.513   0.211  53.236  0.00  0.00    +0.000 A 
ATOM      8  C   UNL     1      24.011   1.408  52.705  0.00  0.00    +0.000 A 
BRANCH   7   9
ATOM      9  O   UNL     1      24.227  -0.376  54.266  0.00  0.00    +0.000 OA
BRANCH   9  10
ATOM     10  C   UNL     1      25.604  -0.451  54.150  0.00  0.00    +0.000 A 
ATOM     11  C   UNL     1      26.495   0.187  55.020  0.00  0.00    +0.000 A 
ATOM     12  C   UNL     1      27.864   0.198  54.749  0.00  0.00    +0.000 A 
ATOM     13  C   UNL     1      28.369  -0.499  53.649  0.00  0.00    +0.000 A 
ATOM     14  C   UNL     1      29.834  -0.461  53.328  0.00  0.00    +0.000 C 
ATOM     15  C   UNL     1      27.488  -1.244  52.853  0.00  0.00    +0.000 A 
ATOM     16  C   UNL     1      26.110  -1.215  53.099  0.00  0.00    +0.000 A 
ENDBRANCH   9  10
ENDBRANCH   7   9
ENDBRANCH   1   3
BRANCH   1  17
ATOM     17  C   UNL     1      24.607   3.413  49.749  0.00  0.00    +0.000 C 
BRANCH  17  18
ATOM     18  C   UNL     1      26.096   3.755  49.867  0.00  0.00    +0.000 C 
BRANCH  18  20
ATOM     19  C   UNL     1      27.907   4.934  48.576  0.00  0.00    +0.000 C 
ATOM     20  C   UNL     1      26.502   5.044  49.152  0.00  0.00    +0.000 C 
ENDBRANCH  18  20
ENDBRANCH  17  18
ENDBRANCH   1  17
BRANCH   2  21
ATOM     21  C   UNL     1      23.553   5.890  51.288  0.00  0.00    +0.000 C 
BRANCH  21  22
ATOM     22  N   UNL     1      22.385   6.249  50.511  0.00  0.00    +0.000 N 
ATOM     23  O   UNL     1      21.528   7.225  51.112  0.00  0.00    +0.000 OA
ATOM     24  C   UNL     1      20.930   7.915  50.084  0.00  0.00    +0.000 A 
ATOM     25  O   UNL     1      20.140   8.834  50.231  0.00  0.00    +0.000 OA
ATOM     26  N   UNL     1      21.405   7.441  48.918  0.00  0.00    +0.000 N 
ATOM     27  C   UNL     1      22.422   6.590  49.163  0.00  0.00    +0.000 A 
ATOM     28  O   UNL     1      23.257   6.246  48.342  0.00  0.00    +0.000 OA
ATOM     29  H   UNL     1      21.063   7.676  48.026  0.00  0.00    +0.000 HD
ENDBRANCH  21  22
ENDBRANCH   2  21
TORSDOF 8
ENDMDL
MODEL 5
REMARK VINA RESULT:    -8.430      2.671      6.783
REMARK INTER + INTRA:         -13.682
REMARK INTER:                 -11.966
REMARK INTRA:                  -1.716
REMARK UNBOUND:                -1.310
REMARK  Name = 
REMARK  10 active torsions:
REMARK  status: ('A' for Active; 'I' for Inactive)
REMARK    1  A    between atoms: C_1  and  C_2
REMARK    2  A    between atoms: C_2  and  C_3
REMARK    3  A    between atoms: C_3  and  C_4
REMARK    4  A    between atoms: C_4  and  C_5
REMARK    5  A    between atoms: C_5  and  C_15
REMARK    6  A    between atoms: C_6  and  C_7
REMARK    7  A    between atoms: C_7  and  N_8
REMARK    8  A    between atoms: C_19  and  O_20
REMARK    9  A    between atoms: O_20  and  C_21
REMARK   10  A    between atoms: C_24  and  C_25
REMARK                            x       y       z     vdW  Elec       q    Type
REMARK                         _______ _______ _______ _____ _____    ______ ____
ROOT
ATOM      1  C   UNL     1      21.883   2.434  51.402  0.00  0.00    +0.000 C 
ATOM      2  C   UNL     1      22.923   3.301  51.403  0.00  0.00    +0.000 C 
ENDROOT
BRANCH   1   3
ATOM      3  C   UNL     1      21.861   1.369  52.454  0.00  0.00    +0.000 A 
ATOM      4  C   UNL     1      20.745   1.214  53.292  0.00  0.00    +0.000 A 
ATOM      5  C   UNL     1      20.773   0.354  54.390  0.00  0.00    +0.000 A 
ATOM      6  C   UNL     1      21.908  -0.401  54.649  0.00  0.00    +0.000 A 
ATOM      7  C   UNL     1      22.960  -0.405  53.731  0.00  0.00    +0.000 A 
ATOM      8  C   UNL     1      22.962   0.514  52.673  0.00  0.00    +0.000 A 
BRANCH   7   9
ATOM      9  O   UNL     1      24.026  -1.282  53.816  0.00  0.00    +0.000 OA
BRANCH   9  10
ATOM     10  C   UNL     1      25.308  -0.766  53.741  0.00  0.00    +0.000 A 
ATOM     11  C   UNL     1      26.116  -0.849  52.601  0.00  0.00    +0.000 A 
ATOM     12  C   UNL     1      27.452  -0.448  52.649  0.00  0.00    +0.000 A 
ATOM     13  C   UNL     1      27.975   0.118  53.814  0.00  0.00    +0.000 A 
ATOM     14  C   UNL     1      29.420   0.515  53.887  0.00  0.00    +0.000 C 
ATOM     15  C   UNL     1      27.127   0.318  54.913  0.00  0.00    +0.000 A 
ATOM     16  C   UNL     1      25.801  -0.128  54.878  0.00  0.00    +0.000 A 
ENDBRANCH   9  10
ENDBRANCH   7   9
ENDBRANCH   1   3
BRANCH   1  17
ATOM     17  C   UNL     1      20.656   2.631  50.522  0.00  0.00    +0.000 C 
BRANCH  17  18
ATOM     18  C   UNL     1      20.417   1.539  49.473  0.00  0.00    +0.000 C 
BRANCH  18  20
ATOM     19  C   UNL     1      22.190   2.130  47.788  0.00  0.00    +0.000 C 
ATOM     20  C   UNL     1      21.682   1.070  48.756  0.00  0.00    +0.000 C 
ENDBRANCH  18  20
ENDBRANCH  17  18
ENDBRANCH   1  17
BRANCH   2  21
ATOM     21  C   UNL     1      23.102   4.537  50.563  0.00  0.00    +0.000 C 
BRANCH  21  22
ATOM     22  N   UNL     1      24.506   4.888  50.618  0.00  0.00    +0.000 N 
ATOM     23  O   UNL     1      25.345   4.198  49.685  0.00  0.00    +0.000 OA
ATOM     24  C   UNL     1      26.388   5.043  49.390  0.00  0.00    +0.000 A 
ATOM     25  O   UNL     1      27.294   4.783  48.613  0.00  0.00    +0.000 OA
ATOM     26  N   UNL     1      26.203   6.200  50.052  0.00  0.00    +0.000 N 
ATOM     27  C   UNL     1      24.982   6.195  50.624  0.00  0.00    +0.000 A 
ATOM     28  O   UNL     1      24.391   7.189  51.014  0.00  0.00    +0.000 OA
ATOM     29  H   UNL     1      26.856   6.934  50.110  0.00  0.00    +0.000 HD
ENDBRANCH  21  22
ENDBRANCH   2  21
TORSDOF 8
ENDMDL
MODEL 6
REMARK VINA RESULT:    -8.311      3.273      7.674
REMARK INTER + INTRA:         -13.509
REMARK INTER:                 -12.132
REMARK INTRA:                  -1.376
REMARK UNBOUND:                -1.310
REMARK  Name = 
REMARK  10 active torsions:
REMARK  status: ('A' for Active; 'I' for Inactive)
REMARK    1  A    between atoms: C_1  and  C_2
REMARK    2  A    between atoms: C_2  and  C_3
REMARK    3  A    between atoms: C_3  and  C_4
REMARK    4  A    between atoms: C_4  and  C_5
REMARK    5  A    between atoms: C_5  and  C_15
REMARK    6  A    between atoms: C_6  and  C_7
REMARK    7  A    between atoms: C_7  and  N_8
REMARK    8  A    between atoms: C_19  and  O_20
REMARK    9  A    between atoms: O_20  and  C_21
REMARK   10  A    between atoms: C_24  and  C_25
REMARK                            x       y       z     vdW  Elec       q    Type
REMARK                         _______ _______ _______ _____ _____    ______ ____
ROOT
ATOM      1  C   UNL     1      25.473   0.784  52.371  0.00  0.00    +0.000 C 
ATOM      2  C   UNL     1      25.436   1.981  51.741  0.00  0.00    +0.000 C 
ENDROOT
BRANCH   1   3
ATOM      3  C   UNL     1      24.269   0.371  53.158  0.00  0.00    +0.000 A 
ATOM      4  C   UNL     1      24.355  -0.656  54.112  0.00  0.00    +0.000 A 
ATOM      5  C   UNL     1      23.216  -1.177  54.725  0.00  0.00    +0.000 A 
ATOM      6  C   UNL     1      21.967  -0.655  54.424  0.00  0.00    +0.000 A 
ATOM      7  C   UNL     1      21.869   0.483  53.621  0.00  0.00    +0.000 A 
ATOM      8  C   UNL     1      23.003   0.958  52.948  0.00  0.00    +0.000 A 
BRANCH   7   9
ATOM      9  O   UNL     1      20.686   1.179  53.446  0.00  0.00    +0.000 OA
BRANCH   9  10
ATOM     10  C   UNL     1      19.822   0.763  52.448  0.00  0.00    +0.000 A 
ATOM     11  C   UNL     1      19.838   1.270  51.143  0.00  0.00    +0.000 A 
ATOM     12  C   UNL     1      18.838   0.920  50.235  0.00  0.00    +0.000 A 
ATOM     13  C   UNL     1      17.853  -0.005  50.594  0.00  0.00    +0.000 A 
ATOM     14  C   UNL     1      16.752  -0.356  49.638  0.00  0.00    +0.000 C 
ATOM     15  C   UNL     1      17.915  -0.607  51.859  0.00  0.00    +0.000 A 
ATOM     16  C   UNL     1      18.892  -0.220  52.784  0.00  0.00    +0.000 A 
ENDBRANCH   9  10
ENDBRANCH   7   9
ENDBRANCH   1   3
BRANCH   1  17
ATOM     17  C   UNL     1      26.588  -0.227  52.139  0.00  0.00    +0.000 C 
BRANCH  17  18
ATOM     18  C   UNL     1      27.773  -0.133  53.106  0.00  0.00    +0.000 C 
BRANCH  18  20
ATOM     19  C   UNL     1      28.689   2.145  53.660  0.00  0.00    +0.000 C 
ATOM     20  C   UNL     1      27.707   1.054  54.066  0.00  0.00    +0.000 C 
ENDBRANCH  18  20
ENDBRANCH  17  18
ENDBRANCH   1  17
BRANCH   2  21
ATOM     21  C   UNL     1      26.437   2.554  50.774  0.00  0.00    +0.000 C 
BRANCH  21  22
ATOM     22  N   UNL     1      25.773   3.623  50.058  0.00  0.00    +0.000 N 
ATOM     23  O   UNL     1      24.818   4.368  50.821  0.00  0.00    +0.000 OA
ATOM     24  C   UNL     1      24.801   5.641  50.301  0.00  0.00    +0.000 A 
ATOM     25  O   UNL     1      24.105   6.552  50.719  0.00  0.00    +0.000 OA
ATOM     26  N   UNL     1      25.708   5.710  49.310  0.00  0.00    +0.000 N 
ATOM     27  C   UNL     1      26.437   4.576  49.292  0.00  0.00    +0.000 A 
ATOM     28  O   UNL     1      27.521   4.452  48.744  0.00  0.00    +0.000 OA
ATOM     29  H   UNL     1      25.822   6.469  48.694  0.00  0.00    +0.000 HD
ENDBRANCH  21  22
ENDBRANCH   2  21
TORSDOF 8
ENDMDL
MODEL 7
REMARK VINA RESULT:    -8.262      3.061      5.898
REMARK INTER + INTRA:         -13.436
REMARK INTER:                 -11.804
REMARK INTRA:                  -1.632
REMARK UNBOUND:                -1.310
REMARK  Name = 
REMARK  10 active torsions:
REMARK  status: ('A' for Active; 'I' for Inactive)
REMARK    1  A    between atoms: C_1  and  C_2
REMARK    2  A    between atoms: C_2  and  C_3
REMARK    3  A    between atoms: C_3  and  C_4
REMARK    4  A    between atoms: C_4  and  C_5
REMARK    5  A    between atoms: C_5  and  C_15
REMARK    6  A    between atoms: C_6  and  C_7
REMARK    7  A    between atoms: C_7  and  N_8
REMARK    8  A    between atoms: C_19  and  O_20
REMARK    9  A    between atoms: O_20  and  C_21
REMARK   10  A    between atoms: C_24  and  C_25
REMARK                            x       y       z     vdW  Elec       q    Type
REMARK                         _______ _______ _______ _____ _____    ______ ____
ROOT
ATOM      1  C   UNL     1      24.466   1.042  52.966  0.00  0.00    +0.000 C 
ATOM      2  C   UNL     1      25.490   0.322  52.452  0.00  0.00    +0.000 C 
ENDROOT
BRANCH   1   3
ATOM      3  C   UNL     1      23.268   0.295  53.465  0.00  0.00    +0.000 A 
ATOM      4  C   UNL     1      23.401  -0.685  54.461  0.00  0.00    +0.000 A 
ATOM      5  C   UNL     1      22.336  -1.516  54.812  0.00  0.00    +0.000 A 
ATOM      6  C   UNL     1      21.103  -1.355  54.198  0.00  0.00    +0.000 A 
ATOM      7  C   UNL     1      20.892  -0.274  53.341  0.00  0.00    +0.000 A 
ATOM      8  C   UNL     1      21.979   0.510  52.933  0.00  0.00    +0.000 A 
BRANCH   7   9
ATOM      9  O   UNL     1      19.642   0.068  52.857  0.00  0.00    +0.000 OA
BRANCH   9  10
ATOM     10  C   UNL     1      19.560   1.058  51.893  0.00  0.00    +0.000 A 
ATOM     11  C   UNL     1      19.403   0.803  50.526  0.00  0.00    +0.000 A 
ATOM     12  C   UNL     1      19.487   1.842  49.598  0.00  0.00    +0.000 A 
ATOM     13  C   UNL     1      19.648   3.161  50.030  0.00  0.00    +0.000 A 
ATOM     14  C   UNL     1      19.779   4.278  49.038  0.00  0.00    +0.000 C 
ATOM     15  C   UNL     1      19.676   3.426  51.406  0.00  0.00    +0.000 A 
ATOM     16  C   UNL     1      19.638   2.378  52.334  0.00  0.00    +0.000 A 
ENDBRANCH   9  10
ENDBRANCH   7   9
ENDBRANCH   1   3
BRANCH   1  17
ATOM     17  C   UNL     1      24.575   2.535  53.242  0.00  0.00    +0.000 C 
BRANCH  17  18
ATOM     18  C   UNL     1      23.552   3.415  52.515  0.00  0.00    +0.000 C 
BRANCH  18  20
ATOM     19  C   UNL     1      23.317   2.686  50.117  0.00  0.00    +0.000 C 
ATOM     20  C   UNL     1      23.911   3.723  51.061  0.00  0.00    +0.000 C 
ENDBRANCH  18  20
ENDBRANCH  17  18
ENDBRANCH   1  17
BRANCH   2  21
ATOM     21  C   UNL     1      26.850   0.811  52.031  0.00  0.00    +0.000 C 
BRANCH  21  22
ATOM     22  N   UNL     1      27.748   0.582  53.145  0.00  0.00    +0.000 N 
ATOM     23  O   UNL     1      28.409  -0.688  53.145  0.00  0.00    +0.000 OA
ATOM     24  C   UNL     1      29.617  -0.506  53.776  0.00  0.00    +0.000 A 
ATOM     25  O   UNL     1      30.450  -1.382  53.946  0.00  0.00    +0.000 OA
ATOM     26  N   UNL     1      29.733   0.791  54.112  0.00  0.00    +0.000 N 
ATOM     27  C   UNL     1      28.718   1.488  53.560  0.00  0.00    +0.000 A 
ATOM     28  O   UNL     1      28.707   2.698  53.405  0.00  0.00    +0.000 OA
ATOM     29  H   UNL     1      30.445   1.173  54.673  0.00  0.00    +0.000 HD
ENDBRANCH  21  22
ENDBRANCH   2  21
TORSDOF 8
ENDMDL
MODEL 8
REMARK VINA RESULT:    -8.213      2.189      5.097
REMARK INTER + INTRA:         -13.364
REMARK INTER:                 -11.753
REMARK INTRA:                  -1.611
REMARK UNBOUND:                -1.310
REMARK  Name = 
REMARK  10 active torsions:
REMARK  status: ('A' for Active; 'I' for Inactive)
REMARK    1  A    between atoms: C_1  and  C_2
REMARK    2  A    between atoms: C_2  and  C_3
REMARK    3  A    between atoms: C_3  and  C_4
REMARK    4  A    between atoms: C_4  and  C_5
REMARK    5  A    between atoms: C_5  and  C_15
REMARK    6  A    between atoms: C_6  and  C_7
REMARK    7  A    between atoms: C_7  and  N_8
REMARK    8  A    between atoms: C_19  and  O_20
REMARK    9  A    between atoms: O_20  and  C_21
REMARK   10  A    between atoms: C_24  and  C_25
REMARK                            x       y       z     vdW  Elec       q    Type
REMARK                         _______ _______ _______ _____ _____    ______ ____
ROOT
ATOM      1  C   UNL     1      25.580   1.109  52.834  0.00  0.00    +0.000 C 
ATOM      2  C   UNL     1      26.336   1.628  53.829  0.00  0.00    +0.000 C 
ENDROOT
BRANCH   1   3
ATOM      3  C   UNL     1      25.362   1.946  51.612  0.00  0.00    +0.000 A 
ATOM      4  C   UNL     1      26.446   2.333  50.808  0.00  0.00    +0.000 A 
ATOM      5  C   UNL     1      26.292   3.256  49.774  0.00  0.00    +0.000 A 
ATOM      6  C   UNL     1      25.038   3.783  49.498  0.00  0.00    +0.000 A 
ATOM      7  C   UNL     1      23.916   3.281  50.159  0.00  0.00    +0.000 A 
ATOM      8  C   UNL     1      24.082   2.412  51.245  0.00  0.00    +0.000 A 
BRANCH   7   9
ATOM      9  O   UNL     1      22.622   3.606  49.793  0.00  0.00    +0.000 OA
BRANCH   9  10
ATOM     10  C   UNL     1      21.591   2.802  50.247  0.00  0.00    +0.000 A 
ATOM     11  C   UNL     1      20.750   3.139  51.314  0.00  0.00    +0.000 A 
ATOM     12  C   UNL     1      19.837   2.212  51.816  0.00  0.00    +0.000 A 
ATOM     13  C   UNL     1      19.694   0.963  51.207  0.00  0.00    +0.000 A 
ATOM     14  C   UNL     1      18.743  -0.053  51.765  0.00  0.00    +0.000 C 
ATOM     15  C   UNL     1      20.446   0.677  50.059  0.00  0.00    +0.000 A 
ATOM     16  C   UNL     1      21.395   1.590  49.584  0.00  0.00    +0.000 A 
ENDBRANCH   9  10
ENDBRANCH   7   9
ENDBRANCH   1   3
BRANCH   1  17
ATOM     17  C   UNL     1      25.130  -0.346  52.825  0.00  0.00    +0.000 C 
BRANCH  17  18
ATOM     18  C   UNL     1      23.966  -0.681  53.764  0.00  0.00    +0.000 C 
BRANCH  18  20
ATOM     19  C   UNL     1      21.595  -0.019  54.288  0.00  0.00    +0.000 C 
ATOM     20  C   UNL     1      22.585  -0.372  53.186  0.00  0.00    +0.000 C 
ENDBRANCH  18  20
ENDBRANCH  17  18
ENDBRANCH   1  17
BRANCH   2  21
ATOM     21  C   UNL     1      26.828   0.944  55.076  0.00  0.00    +0.000 C 
BRANCH  21  22
ATOM     22  N   UNL     1      28.201   0.552  54.833  0.00  0.00    +0.000 N 
ATOM     23  O   UNL     1      28.375  -0.771  54.315  0.00  0.00    +0.000 OA
ATOM     24  C   UNL     1      29.517  -0.749  53.548  0.00  0.00    +0.000 A 
ATOM     25  O   UNL     1      29.964  -1.709  52.941  0.00  0.00    +0.000 OA
ATOM     26  N   UNL     1      30.006   0.504  53.545  0.00  0.00    +0.000 N 
ATOM     27  C   UNL     1      29.120   1.331  54.138  0.00  0.00    +0.000 A 
ATOM     28  O   UNL     1      29.110   2.545  54.016  0.00  0.00    +0.000 OA
ATOM     29  H   UNL     1      30.875   0.776  53.171  0.00  0.00    +0.000 HD
ENDBRANCH  21  22
ENDBRANCH   2  21
TORSDOF 8
ENDMDL
MODEL 9
REMARK VINA RESULT:    -8.178      4.614      8.033
REMARK INTER + INTRA:         -13.313
REMARK INTER:                 -11.946
REMARK INTRA:                  -1.367
REMARK UNBOUND:                -1.310
REMARK  Name = 
REMARK  10 active torsions:
REMARK  status: ('A' for Active; 'I' for Inactive)
REMARK    1  A    between atoms: C_1  and  C_2
REMARK    2  A    between atoms: C_2  and  C_3
REMARK    3  A    between atoms: C_3  and  C_4
REMARK    4  A    between atoms: C_4  and  C_5
REMARK    5  A    between atoms: C_5  and  C_15
REMARK    6  A    between atoms: C_6  and  C_7
REMARK    7  A    between atoms: C_7  and  N_8
REMARK    8  A    between atoms: C_19  and  O_20
REMARK    9  A    between atoms: O_20  and  C_21
REMARK   10  A    between atoms: C_24  and  C_25
REMARK                            x       y       z     vdW  Elec       q    Type
REMARK                         _______ _______ _______ _____ _____    ______ ____
ROOT
ATOM      1  C   UNL     1      20.830   1.076  50.906  0.00  0.00    +0.000 C 
ATOM      2  C   UNL     1      19.752   0.662  51.612  0.00  0.00    +0.000 C 
ENDROOT
BRANCH   1   3
ATOM      3  C   UNL     1      22.079   1.401  51.664  0.00  0.00    +0.000 A 
ATOM      4  C   UNL     1      22.662   2.675  51.569  0.00  0.00    +0.000 A 
ATOM      5  C   UNL     1      23.915   2.945  52.119  0.00  0.00    +0.000 A 
ATOM      6  C   UNL     1      24.595   1.952  52.810  0.00  0.00    +0.000 A 
ATOM      7  C   UNL     1      23.963   0.737  53.076  0.00  0.00    +0.000 A 
ATOM      8  C   UNL     1      22.739   0.442  52.461  0.00  0.00    +0.000 A 
BRANCH   7   9
ATOM      9  O   UNL     1      24.494  -0.215  53.929  0.00  0.00    +0.000 OA
BRANCH   9  10
ATOM     10  C   UNL     1      25.868  -0.383  53.950  0.00  0.00    +0.000 A 
ATOM     11  C   UNL     1      26.716   0.248  54.867  0.00  0.00    +0.000 A 
ATOM     12  C   UNL     1      28.102   0.156  54.728  0.00  0.00    +0.000 A 
ATOM     13  C   UNL     1      28.658  -0.634  53.719  0.00  0.00    +0.000 A 
ATOM     14  C   UNL     1      30.145  -0.707  53.540  0.00  0.00    +0.000 C 
ATOM     15  C   UNL     1      27.804  -1.368  52.883  0.00  0.00    +0.000 A 
ATOM     16  C   UNL     1      26.415  -1.238  52.994  0.00  0.00    +0.000 A 
ENDBRANCH   9  10
ENDBRANCH   7   9
ENDBRANCH   1   3
BRANCH   1  17
ATOM     17  C   UNL     1      20.880   1.020  49.385  0.00  0.00    +0.000 C 
BRANCH  17  18
ATOM     18  C   UNL     1      20.331   2.255  48.662  0.00  0.00    +0.000 C 
BRANCH  18  20
ATOM     19  C   UNL     1      22.640   2.178  47.665  0.00  0.00    +0.000 C 
ATOM     20  C   UNL     1      21.363   2.994  47.812  0.00  0.00    +0.000 C 
ENDBRANCH  18  20
ENDBRANCH  17  18
ENDBRANCH   1  17
BRANCH   2  21
ATOM     21  C   UNL     1      18.443   0.134  51.087  0.00  0.00    +0.000 C 
BRANCH  21  22
ATOM     22  N   UNL     1      17.491   0.201  52.176  0.00  0.00    +0.000 N 
ATOM     23  O   UNL     1      16.259   0.863  51.870  0.00  0.00    +0.000 OA
ATOM     24  C   UNL     1      15.293   0.289  52.662  0.00  0.00    +0.000 A 
ATOM     25  O   UNL     1      14.113   0.603  52.656  0.00  0.00    +0.000 OA
ATOM     26  N   UNL     1      15.860  -0.693  53.386  0.00  0.00    +0.000 N 
ATOM     27  C   UNL     1      17.123  -0.891  52.955  0.00  0.00    +0.000 A 
ATOM     28  O   UNL     1      17.785  -1.893  53.173  0.00  0.00    +0.000 OA
ATOM     29  H   UNL     1      15.423  -1.188  54.115  0.00  0.00    +0.000 HD
ENDBRANCH  21  22
ENDBRANCH   2  21
TORSDOF 8
ENDMDL
