MODEL 1
REMARK VINA RESULT:    -8.351      0.000      0.000
REMARK INTER + INTRA:         -11.518
REMARK INTER:                 -10.547
REMARK INTRA:                  -0.971
REMARK UNBOUND:                -0.971
REMARK  Name = 
REMARK  7 active torsions:
REMARK  status: ('A' for Active; 'I' for Inactive)
REMARK    1  A    between atoms: C_1  and  C_2
REMARK    2  A    between atoms: C_2  and  C_3
REMARK    3  A    between atoms: C_3  and  C_4
REMARK    4  A    between atoms: C_4  and  C_5
REMARK    5  A    between atoms: C_9  and  C_10
REMARK    6  A    between atoms: C_13  and  N_14
REMARK    7  A    between atoms: C_24  and  C_25
REMARK                            x       y       z     vdW  Elec       q    Type
REMARK                         _______ _______ _______ _____ _____    ______ ____
ROOT
ATOM      1  C   UNL     1      23.765   3.514  49.451  0.00  0.00    +0.000 C 
ATOM      2  O   UNL     1      24.739   4.212  49.174  0.00  0.00    +0.000 OA
ATOM      3  N   UNL     1      23.196   3.435  50.733  0.00  0.00    +0.000 N 
ATOM      4  N   UNL     1      22.217   2.498  50.986  0.00  0.00    +0.000 NA
ATOM      5  C   UNL     1      22.486   1.647  51.939  0.00  0.00    +0.000 C 
ATOM      6  C   UNL     1      23.843   1.487  52.538  0.00  0.00    +0.000 A 
ATOM      7  C   UNL     1      24.456   0.229  52.428  0.00  0.00    +0.000 A 
ATOM      8  C   UNL     1      25.726   0.100  52.942  0.00  0.00    +0.000 A 
ATOM      9  C   UNL     1      26.349   1.132  53.604  0.00  0.00    +0.000 A 
ATOM     10  C   UNL     1      25.760   2.369  53.749  0.00  0.00    +0.000 A 
ATOM     11  C   UNL     1      24.512   2.580  53.137  0.00  0.00    +0.000 A 
ATOM     12  C   UNL     1      23.915   3.963  53.138  0.00  0.00    +0.000 C 
ATOM     13  C   UNL     1      23.325   4.467  51.795  0.00  0.00    +0.000 C 
ATOM     14  C   UNL     1      23.876   5.831  51.370  0.00  0.00    +0.000 C 
ATOM     15  O   UNL     1      27.598   0.793  54.025  0.00  0.00    +0.000 OA
ATOM     16  C   UNL     1      27.765  -0.464  53.336  0.00  0.00    +0.000 C 
ATOM     17  O   UNL     1      26.518  -1.001  52.844  0.00  0.00    +0.000 OA
ENDROOT
BRANCH   5  18
ATOM     18  C   UNL     1      21.378   0.781  52.452  0.00  0.00    +0.000 A 
ATOM     19  C   UNL     1      20.268   0.553  51.653  0.00  0.00    +0.000 A 
ATOM     20  C   UNL     1      19.181  -0.177  52.152  0.00  0.00    +0.000 A 
ATOM     21  C   UNL     1      19.172  -0.631  53.472  0.00  0.00    +0.000 A 
ATOM     22  C   UNL     1      20.322  -0.450  54.249  0.00  0.00    +0.000 A 
ATOM     23  C   UNL     1      21.416   0.275  53.755  0.00  0.00    +0.000 A 
BRANCH  21  24
ATOM     24  N   UNL     1      18.124  -1.435  53.940  0.00  0.00    +0.000 N 
ATOM     25  H   UNL     1      17.753  -1.287  54.840  0.00  0.00    +0.000 HD
ATOM     26  H   UNL     1      17.757  -2.148  53.369  0.00  0.00    +0.000 HD
ENDBRANCH  21  24
ENDBRANCH   5  18
BRANCH   1  27
ATOM     27  C   UNL     1      23.078   2.645  48.395  0.00  0.00    +0.000 C 
BRANCH  27  28
ATOM     28  C   UNL     1      22.164   3.381  47.405  0.00  0.00    +0.000 C 
BRANCH  28  30
ATOM     29  C   UNL     1      19.882   2.666  48.341  0.00  0.00    +0.000 C 
ATOM     30  C   UNL     1      20.781   3.811  47.905  0.00  0.00    +0.000 C 
ENDBRANCH  28  30
ENDBRANCH  27  28
ENDBRANCH   1  27
TORSDOF 5
ENDMDL
MODEL 2
REMARK VINA RESULT:    -7.995      2.970      5.304
REMARK INTER + INTRA:         -11.069
REMARK INTER:                 -10.149
REMARK INTRA:                  -0.920
REMARK UNBOUND:                -0.971
REMARK  Name = 
REMARK  7 active torsions:
REMARK  status: ('A' for Active; 'I' for Inactive)
REMARK    1  A    between atoms: C_1  and  C_2
REMARK    2  A    between atoms: C_2  and  C_3
REMARK    3  A    between atoms: C_3  and  C_4
REMARK    4  A    between atoms: C_4  and  C_5
REMARK    5  A    between atoms: C_9  and  C_10
REMARK    6  A    between atoms: C_13  and  N_14
REMARK    7  A    between atoms: C_24  and  C_25
REMARK                            x       y       z     vdW  Elec       q    Type
REMARK                         _______ _______ _______ _____ _____    ______ ____
ROOT
ATOM      1  C   UNL     1      22.009   3.101  48.954  0.00  0.00    +0.000 C 
ATOM      2  O   UNL     1      21.434   3.924  48.243  0.00  0.00    +0.000 OA
ATOM      3  N   UNL     1      22.572   3.403  50.205  0.00  0.00    +0.000 N 
ATOM      4  N   UNL     1      23.344   2.460  50.848  0.00  0.00    +0.000 NA
ATOM      5  C   UNL     1      24.569   2.824  51.118  0.00  0.00    +0.000 C 
ATOM      6  C   UNL     1      25.207   4.043  50.543  0.00  0.00    +0.000 A 
ATOM      7  C   UNL     1      26.356   3.865  49.758  0.00  0.00    +0.000 A 
ATOM      8  C   UNL     1      26.915   4.989  49.193  0.00  0.00    +0.000 A 
ATOM      9  C   UNL     1      26.420   6.248  49.442  0.00  0.00    +0.000 A 
ATOM     10  C   UNL     1      25.309   6.454  50.229  0.00  0.00    +0.000 A 
ATOM     11  C   UNL     1      24.638   5.325  50.730  0.00  0.00    +0.000 A 
ATOM     12  C   UNL     1      23.332   5.507  51.459  0.00  0.00    +0.000 C 
ATOM     13  C   UNL     1      22.178   4.546  51.070  0.00  0.00    +0.000 C 
ATOM     14  C   UNL     1      20.884   5.276  50.704  0.00  0.00    +0.000 C 
ATOM     15  O   UNL     1      27.116   7.213  48.781  0.00  0.00    +0.000 OA
ATOM     16  C   UNL     1      27.926   6.392  47.913  0.00  0.00    +0.000 C 
ATOM     17  O   UNL     1      27.963   5.010  48.326  0.00  0.00    +0.000 OA
ENDROOT
BRANCH   5  18
ATOM     18  C   UNL     1      25.376   1.971  52.045  0.00  0.00    +0.000 A 
ATOM     19  C   UNL     1      25.514   2.349  53.372  0.00  0.00    +0.000 A 
ATOM     20  C   UNL     1      26.342   1.613  54.230  0.00  0.00    +0.000 A 
ATOM     21  C   UNL     1      27.084   0.532  53.752  0.00  0.00    +0.000 A 
ATOM     22  C   UNL     1      26.890   0.121  52.429  0.00  0.00    +0.000 A 
ATOM     23  C   UNL     1      26.059   0.849  51.565  0.00  0.00    +0.000 A 
BRANCH  21  24
ATOM     24  N   UNL     1      27.842  -0.253  54.631  0.00  0.00    +0.000 N 
ATOM     25  H   UNL     1      27.572  -1.180  54.822  0.00  0.00    +0.000 HD
ATOM     26  H   UNL     1      28.647   0.122  55.058  0.00  0.00    +0.000 HD
ENDBRANCH  21  24
ENDBRANCH   5  18
BRANCH   1  27
ATOM     27  C   UNL     1      22.170   1.643  48.518  0.00  0.00    +0.000 C 
BRANCH  27  28
ATOM     28  C   UNL     1      21.218   0.632  49.174  0.00  0.00    +0.000 C 
BRANCH  28  30
ATOM     29  C   UNL     1      19.879   0.861  51.353  0.00  0.00    +0.000 C 
ATOM     30  C   UNL     1      19.971   1.184  49.871  0.00  0.00    +0.000 C 
ENDBRANCH  28  30
ENDBRANCH  27  28
ENDBRANCH   1  27
TORSDOF 5
ENDMDL
MODEL 3
REMARK VINA RESULT:    -7.738      2.690      5.651
REMARK INTER + INTRA:         -10.744
REMARK INTER:                  -9.817
REMARK INTRA:                  -0.927
REMARK UNBOUND:                -0.971
REMARK  Name = 
REMARK  7 active torsions:
REMARK  status: ('A' for Active; 'I' for Inactive)
REMARK    1  A    between atoms: C_1  and  C_2
REMARK    2  A    between atoms: C_2  and  C_3
REMARK    3  A    between atoms: C_3  and  C_4
REMARK    4  A    between atoms: C_4  and  C_5
REMARK    5  A    between atoms: C_9  and  C_10
REMARK    6  A    between atoms: C_13  and  N_14
REMARK    7  A    between atoms: C_24  and  C_25
REMARK                            x       y       z     vdW  Elec       q    Type
REMARK                         _______ _______ _______ _____ _____    ______ ____
ROOT
ATOM      1  C   UNL     1      22.908   5.014  50.636  0.00  0.00    +0.000 C 
ATOM      2  O   UNL     1      21.819   5.405  50.220  0.00  0.00    +0.000 OA
ATOM      3  N   UNL     1      23.500   3.797  50.259  0.00  0.00    +0.000 N 
ATOM      4  N   UNL     1      24.636   3.364  50.908  0.00  0.00    +0.000 NA
ATOM      5  C   UNL     1      24.541   2.201  51.494  0.00  0.00    +0.000 C 
ATOM      6  C   UNL     1      23.245   1.495  51.711  0.00  0.00    +0.000 A 
ATOM      7  C   UNL     1      22.869   1.222  53.035  0.00  0.00    +0.000 A 
ATOM      8  C   UNL     1      21.651   0.611  53.231  0.00  0.00    +0.000 A 
ATOM      9  C   UNL     1      20.861   0.214  52.178  0.00  0.00    +0.000 A 
ATOM     10  C   UNL     1      21.217   0.447  50.868  0.00  0.00    +0.000 A 
ATOM     11  C   UNL     1      22.396   1.172  50.625  0.00  0.00    +0.000 A 
ATOM     12  C   UNL     1      22.733   1.583  49.215  0.00  0.00    +0.000 C 
ATOM     13  C   UNL     1      23.201   3.047  49.010  0.00  0.00    +0.000 C 
ATOM     14  C   UNL     1      22.406   3.789  47.933  0.00  0.00    +0.000 C 
ATOM     15  O   UNL     1      19.701  -0.362  52.595  0.00  0.00    +0.000 OA
ATOM     16  C   UNL     1      19.755  -0.051  54.003  0.00  0.00    +0.000 C 
ATOM     17  O   UNL     1      21.071   0.357  54.435  0.00  0.00    +0.000 OA
ENDROOT
BRANCH   5  18
ATOM     18  C   UNL     1      25.795   1.546  51.980  0.00  0.00    +0.000 A 
ATOM     19  C   UNL     1      25.833   0.166  52.116  0.00  0.00    +0.000 A 
ATOM     20  C   UNL     1      26.965  -0.457  52.658  0.00  0.00    +0.000 A 
ATOM     21  C   UNL     1      28.041   0.301  53.124  0.00  0.00    +0.000 A 
ATOM     22  C   UNL     1      28.019   1.686  52.926  0.00  0.00    +0.000 A 
ATOM     23  C   UNL     1      26.892   2.316  52.379  0.00  0.00    +0.000 A 
BRANCH  21  24
ATOM     24  N   UNL     1      29.206  -0.327  53.585  0.00  0.00    +0.000 N 
ATOM     25  H   UNL     1      29.414  -1.247  53.303  0.00  0.00    +0.000 HD
ATOM     26  H   UNL     1      29.817   0.152  54.190  0.00  0.00    +0.000 HD
ENDBRANCH  21  24
ENDBRANCH   5  18
BRANCH   1  27
ATOM     27  C   UNL     1      23.725   5.837  51.634  0.00  0.00    +0.000 C 
BRANCH  27  28
ATOM     28  C   UNL     1      24.563   6.979  51.040  0.00  0.00    +0.000 C 
BRANCH  28  30
ATOM     29  C   UNL     1      26.103   6.165  49.154  0.00  0.00    +0.000 C 
ATOM     30  C   UNL     1      24.852   6.938  49.537  0.00  0.00    +0.000 C 
ENDBRANCH  28  30
ENDBRANCH  27  28
ENDBRANCH   1  27
TORSDOF 5
ENDMDL
MODEL 4
REMARK VINA RESULT:    -7.309      3.299      6.459
REMARK INTER + INTRA:         -10.202
REMARK INTER:                  -9.435
REMARK INTRA:                  -0.767
REMARK UNBOUND:                -0.971
REMARK  Name = 
REMARK  7 active torsions:
REMARK  status: ('A' for Active; 'I' for Inactive)
REMARK    1  A    between atoms: C_1  and  C_2
REMARK    2  A    between atoms: C_2  and  C_3
REMARK    3  A    between atoms: C_3  and  C_4
REMARK    4  A    between atoms: C_4  and  C_5
REMARK    5  A    between atoms: C_9  and  C_10
REMARK    6  A    between atoms: C_13  and  N_14
REMARK    7  A    between atoms: C_24  and  C_25
REMARK                            x       y       z     vdW  Elec       q    Type
REMARK                         _______ _______ _______ _____ _____    ______ ____
ROOT
ATOM      1  C   UNL     1      20.020   5.397  49.284  0.00  0.00    +0.000 C 
ATOM      2  O   UNL     1      18.851   5.017  49.336  0.00  0.00    +0.000 OA
ATOM      3  N   UNL     1      21.051   4.678  48.656  0.00  0.00    +0.000 N 
ATOM      4  N   UNL     1      22.356   5.098  48.799  0.00  0.00    +0.000 NA
ATOM      5  C   UNL     1      23.173   4.227  49.327  0.00  0.00    +0.000 C 
ATOM      6  C   UNL     1      22.716   2.974  49.996  0.00  0.00    +0.000 A 
ATOM      7  C   UNL     1      23.044   2.805  51.350  0.00  0.00    +0.000 A 
ATOM      8  C   UNL     1      22.581   1.670  51.974  0.00  0.00    +0.000 A 
ATOM      9  C   UNL     1      21.889   0.698  51.291  0.00  0.00    +0.000 A 
ATOM     10  C   UNL     1      21.574   0.826  49.956  0.00  0.00    +0.000 A 
ATOM     11  C   UNL     1      21.926   2.023  49.308  0.00  0.00    +0.000 A 
ATOM     12  C   UNL     1      21.458   2.263  47.896  0.00  0.00    +0.000 C 
ATOM     13  C   UNL     1      20.862   3.661  47.589  0.00  0.00    +0.000 C 
ATOM     14  C   UNL     1      19.481   3.596  46.933  0.00  0.00    +0.000 C 
ATOM     15  O   UNL     1      21.521  -0.334  52.098  0.00  0.00    +0.000 OA
ATOM     16  C   UNL     1      21.844   0.225  53.388  0.00  0.00    +0.000 C 
ATOM     17  O   UNL     1      22.708   1.377  53.296  0.00  0.00    +0.000 OA
ENDROOT
BRANCH   5  18
ATOM     18  C   UNL     1      24.642   4.502  49.265  0.00  0.00    +0.000 A 
ATOM     19  C   UNL     1      25.083   5.780  48.952  0.00  0.00    +0.000 A 
ATOM     20  C   UNL     1      26.452   6.033  48.799  0.00  0.00    +0.000 A 
ATOM     21  C   UNL     1      27.384   4.999  48.898  0.00  0.00    +0.000 A 
ATOM     22  C   UNL     1      26.936   3.728  49.274  0.00  0.00    +0.000 A 
ATOM     23  C   UNL     1      25.567   3.468  49.436  0.00  0.00    +0.000 A 
BRANCH  21  24
ATOM     24  N   UNL     1      28.758   5.271  48.830  0.00  0.00    +0.000 N 
ATOM     25  H   UNL     1      29.139   6.013  49.353  0.00  0.00    +0.000 HD
ATOM     26  H   UNL     1      29.341   4.720  48.260  0.00  0.00    +0.000 HD
ENDBRANCH  21  24
ENDBRANCH   5  18
BRANCH   1  27
ATOM     27  C   UNL     1      20.460   6.716  49.924  0.00  0.00    +0.000 C 
BRANCH  27  28
ATOM     28  C   UNL     1      19.761   7.982  49.410  0.00  0.00    +0.000 C 
BRANCH  28  30
ATOM     29  C   UNL     1      22.140   8.893  49.086  0.00  0.00    +0.000 C 
ATOM     30  C   UNL     1      20.647   9.161  48.995  0.00  0.00    +0.000 C 
ENDBRANCH  28  30
ENDBRANCH  27  28
ENDBRANCH   1  27
TORSDOF 5
ENDMDL
MODEL 5
REMARK VINA RESULT:    -6.717      3.475      6.166
REMARK INTER + INTRA:          -9.455
REMARK INTER:                  -8.592
REMARK INTRA:                  -0.863
REMARK UNBOUND:                -0.971
REMARK  Name = 
REMARK  7 active torsions:
REMARK  status: ('A' for Active; 'I' for Inactive)
REMARK    1  A    between atoms: C_1  and  C_2
REMARK    2  A    between atoms: C_2  and  C_3
REMARK    3  A    between atoms: C_3  and  C_4
REMARK    4  A    between atoms: C_4  and  C_5
REMARK    5  A    between atoms: C_9  and  C_10
REMARK    6  A    between atoms: C_13  and  N_14
REMARK    7  A    between atoms: C_24  and  C_25
REMARK                            x       y       z     vdW  Elec       q    Type
REMARK                         _______ _______ _______ _____ _____    ______ ____
ROOT
ATOM      1  C   UNL     1      16.649   1.144  50.326  0.00  0.00    +0.000 C 
ATOM      2  O   UNL     1      16.009   1.841  49.540  0.00  0.00    +0.000 OA
ATOM      3  N   UNL     1      17.584   1.652  51.243  0.00  0.00    +0.000 N 
ATOM      4  N   UNL     1      18.377   0.781  51.960  0.00  0.00    +0.000 NA
ATOM      5  C   UNL     1      19.664   0.933  51.804  0.00  0.00    +0.000 C 
ATOM      6  C   UNL     1      20.266   1.778  50.731  0.00  0.00    +0.000 A 
ATOM      7  C   UNL     1      21.106   1.145  49.802  0.00  0.00    +0.000 A 
ATOM      8  C   UNL     1      21.622   1.920  48.789  0.00  0.00    +0.000 A 
ATOM      9  C   UNL     1      21.392   3.274  48.723  0.00  0.00    +0.000 A 
ATOM     10  C   UNL     1      20.593   3.926  49.636  0.00  0.00    +0.000 A 
ATOM     11  C   UNL     1      19.950   3.153  50.618  0.00  0.00    +0.000 A 
ATOM     12  C   UNL     1      18.946   3.806  51.532  0.00  0.00    +0.000 C 
ATOM     13  C   UNL     1      17.612   3.048  51.756  0.00  0.00    +0.000 C 
ATOM     14  C   UNL     1      16.376   3.908  51.484  0.00  0.00    +0.000 C 
ATOM     15  O   UNL     1      21.990   3.844  47.641  0.00  0.00    +0.000 OA
ATOM     16  C   UNL     1      22.398   2.661  46.924  0.00  0.00    +0.000 C 
ATOM     17  O   UNL     1      22.369   1.473  47.743  0.00  0.00    +0.000 OA
ENDROOT
BRANCH   5  18
ATOM     18  C   UNL     1      20.583   0.217  52.742  0.00  0.00    +0.000 A 
ATOM     19  C   UNL     1      20.104  -0.858  53.476  0.00  0.00    +0.000 A 
ATOM     20  C   UNL     1      20.923  -1.481  54.427  0.00  0.00    +0.000 A 
ATOM     21  C   UNL     1      22.204  -0.994  54.693  0.00  0.00    +0.000 A 
ATOM     22  C   UNL     1      22.700   0.050  53.905  0.00  0.00    +0.000 A 
ATOM     23  C   UNL     1      21.888   0.675  52.947  0.00  0.00    +0.000 A 
BRANCH  21  24
ATOM     24  N   UNL     1      23.051  -1.671  55.581  0.00  0.00    +0.000 N 
ATOM     25  H   UNL     1      23.897  -2.056  55.258  0.00  0.00    +0.000 HD
ATOM     26  H   UNL     1      22.799  -1.762  56.529  0.00  0.00    +0.000 HD
ENDBRANCH  21  24
ENDBRANCH   5  18
BRANCH   1  27
ATOM     27  C   UNL     1      16.483  -0.377  50.363  0.00  0.00    +0.000 C 
BRANCH  27  28
ATOM     28  C   UNL     1      15.278  -0.906  51.155  0.00  0.00    +0.000 C 
BRANCH  28  30
ATOM     29  C   UNL     1      16.705  -2.155  52.887  0.00  0.00    +0.000 C 
ATOM     30  C   UNL     1      15.481  -2.176  51.986  0.00  0.00    +0.000 C 
ENDBRANCH  28  30
ENDBRANCH  27  28
ENDBRANCH   1  27
TORSDOF 5
ENDMDL
MODEL 6
REMARK VINA RESULT:    -6.607      3.874      5.601
REMARK INTER + INTRA:          -9.316
REMARK INTER:                  -8.882
REMARK INTRA:                  -0.434
REMARK UNBOUND:                -0.971
REMARK  Name = 
REMARK  7 active torsions:
REMARK  status: ('A' for Active; 'I' for Inactive)
REMARK    1  A    between atoms: C_1  and  C_2
REMARK    2  A    between atoms: C_2  and  C_3
REMARK    3  A    between atoms: C_3  and  C_4
REMARK    4  A    between atoms: C_4  and  C_5
REMARK    5  A    between atoms: C_9  and  C_10
REMARK    6  A    between atoms: C_13  and  N_14
REMARK    7  A    between atoms: C_24  and  C_25
REMARK                            x       y       z     vdW  Elec       q    Type
REMARK                         _______ _______ _______ _____ _____    ______ ____
ROOT
ATOM      1  C   UNL     1      22.181   5.344  48.307  0.00  0.00    +0.000 C 
ATOM      2  O   UNL     1      21.833   6.333  47.664  0.00  0.00    +0.000 OA
ATOM      3  N   UNL     1      22.775   5.406  49.579  0.00  0.00    +0.000 N 
ATOM      4  N   UNL     1      23.290   4.260  50.145  0.00  0.00    +0.000 NA
ATOM      5  C   UNL     1      24.560   4.300  50.444  0.00  0.00    +0.000 C 
ATOM      6  C   UNL     1      25.481   5.374  49.969  0.00  0.00    +0.000 A 
ATOM      7  C   UNL     1      26.570   4.988  49.172  0.00  0.00    +0.000 A 
ATOM      8  C   UNL     1      27.390   5.987  48.699  0.00  0.00    +0.000 A 
ATOM      9  C   UNL     1      27.203   7.304  49.047  0.00  0.00    +0.000 A 
ATOM     10  C   UNL     1      26.157   7.707  49.848  0.00  0.00    +0.000 A 
ATOM     11  C   UNL     1      25.228   6.736  50.257  0.00  0.00    +0.000 A 
ATOM     12  C   UNL     1      23.988   7.166  50.997  0.00  0.00    +0.000 C 
ATOM     13  C   UNL     1      22.648   6.540  50.532  0.00  0.00    +0.000 C 
ATOM     14  C   UNL     1      21.571   7.583  50.224  0.00  0.00    +0.000 C 
ATOM     15  O   UNL     1      28.120   8.124  48.466  0.00  0.00    +0.000 OA
ATOM     16  C   UNL     1      28.729   7.204  47.536  0.00  0.00    +0.000 C 
ATOM     17  O   UNL     1      28.429   5.825  47.837  0.00  0.00    +0.000 OA
ENDROOT
BRANCH   5  18
ATOM     18  C   UNL     1      25.124   3.211  51.300  0.00  0.00    +0.000 A 
ATOM     19  C   UNL     1      26.153   2.422  50.807  0.00  0.00    +0.000 A 
ATOM     20  C   UNL     1      26.630   1.339  51.557  0.00  0.00    +0.000 A 
ATOM     21  C   UNL     1      26.040   1.001  52.776  0.00  0.00    +0.000 A 
ATOM     22  C   UNL     1      25.045   1.838  53.293  0.00  0.00    +0.000 A 
ATOM     23  C   UNL     1      24.567   2.928  52.551  0.00  0.00    +0.000 A 
BRANCH  21  24
ATOM     24  N   UNL     1      26.575  -0.028  53.564  0.00  0.00    +0.000 N 
ATOM     25  H   UNL     1      27.491  -0.349  53.400  0.00  0.00    +0.000 HD
ATOM     26  H   UNL     1      26.034  -0.431  54.281  0.00  0.00    +0.000 HD
ENDBRANCH  21  24
ENDBRANCH   5  18
BRANCH   1  27
ATOM     27  C   UNL     1      22.001   3.928  47.757  0.00  0.00    +0.000 C 
BRANCH  27  28
ATOM     28  C   UNL     1      20.692   3.659  47.000  0.00  0.00    +0.000 C 
BRANCH  28  30
ATOM     29  C   UNL     1      18.573   4.091  48.384  0.00  0.00    +0.000 C 
ATOM     30  C   UNL     1      19.526   3.065  47.793  0.00  0.00    +0.000 C 
ENDBRANCH  28  30
ENDBRANCH  27  28
ENDBRANCH   1  27
TORSDOF 5
ENDMDL
MODEL 7
REMARK VINA RESULT:    -6.142      3.660      7.394
REMARK INTER + INTRA:          -8.729
REMARK INTER:                  -7.792
REMARK INTRA:                  -0.937
REMARK UNBOUND:                -0.971
REMARK  Name = 
REMARK  7 active torsions:
REMARK  status: ('A' for Active; 'I' for Inactive)
REMARK    1  A    between atoms: C_1  and  C_2
REMARK    2  A    between atoms: C_2  and  C_3
REMARK    3  A    between atoms: C_3  and  C_4
REMARK    4  A    between atoms: C_4  and  C_5
REMARK    5  A    between atoms: C_9  and  C_10
REMARK    6  A    between atoms: C_13  and  N_14
REMARK    7  A    between atoms: C_24  and  C_25
REMARK                            x       y       z     vdW  Elec       q    Type
REMARK                         _______ _______ _______ _____ _____    ______ ____
ROOT
ATOM      1  C   UNL     1      24.640   3.525  50.429  0.00  0.00    +0.000 C 
ATOM      2  O   UNL     1      24.780   2.370  50.828  0.00  0.00    +0.000 OA
ATOM      3  N   UNL     1      23.859   4.492  51.085  0.00  0.00    +0.000 N 
ATOM      4  N   UNL     1      23.621   5.703  50.472  0.00  0.00    +0.000 NA
ATOM      5  C   UNL     1      22.364   5.998  50.277  0.00  0.00    +0.000 C 
ATOM      6  C   UNL     1      21.257   5.010  50.428  0.00  0.00    +0.000 A 
ATOM      7  C   UNL     1      20.470   4.739  49.298  0.00  0.00    +0.000 A 
ATOM      8  C   UNL     1      19.480   3.793  49.432  0.00  0.00    +0.000 A 
ATOM      9  C   UNL     1      19.213   3.187  50.637  0.00  0.00    +0.000 A 
ATOM     10  C   UNL     1      19.953   3.453  51.768  0.00  0.00    +0.000 A 
ATOM     11  C   UNL     1      21.049   4.324  51.649  0.00  0.00    +0.000 A 
ATOM     12  C   UNL     1      21.973   4.513  52.823  0.00  0.00    +0.000 C 
ATOM     13  C   UNL     1      23.495   4.467  52.526  0.00  0.00    +0.000 C 
ATOM     14  C   UNL     1      24.253   3.477  53.413  0.00  0.00    +0.000 C 
ATOM     15  O   UNL     1      18.200   2.283  50.545  0.00  0.00    +0.000 OA
ATOM     16  C   UNL     1      18.045   2.222  49.111  0.00  0.00    +0.000 C 
ATOM     17  O   UNL     1      18.685   3.324  48.433  0.00  0.00    +0.000 OA
ENDROOT
BRANCH   5  18
ATOM     18  C   UNL     1      22.017   7.395  49.871  0.00  0.00    +0.000 A 
ATOM     19  C   UNL     1      20.809   7.942  50.280  0.00  0.00    +0.000 A 
ATOM     20  C   UNL     1      20.426   9.214  49.834  0.00  0.00    +0.000 A 
ATOM     21  C   UNL     1      21.219   9.920  48.927  0.00  0.00    +0.000 A 
ATOM     22  C   UNL     1      22.462   9.387  48.569  0.00  0.00    +0.000 A 
ATOM     23  C   UNL     1      22.856   8.118  49.017  0.00  0.00    +0.000 A 
BRANCH  21  24
ATOM     24  N   UNL     1      20.876  11.226  48.550  0.00  0.00    +0.000 N 
ATOM     25  H   UNL     1      20.891  11.951  49.215  0.00  0.00    +0.000 HD
ATOM     26  H   UNL     1      20.619  11.418  47.619  0.00  0.00    +0.000 HD
ENDBRANCH  21  24
ENDBRANCH   5  18
BRANCH   1  27
ATOM     27  C   UNL     1      25.313   4.015  49.145  0.00  0.00    +0.000 C 
BRANCH  27  28
ATOM     28  C   UNL     1      26.847   4.084  49.171  0.00  0.00    +0.000 C 
BRANCH  28  30
ATOM     29  C   UNL     1      26.552   6.537  48.470  0.00  0.00    +0.000 C 
ATOM     30  C   UNL     1      27.506   5.369  48.661  0.00  0.00    +0.000 C 
ENDBRANCH  28  30
ENDBRANCH  27  28
ENDBRANCH   1  27
TORSDOF 5
ENDMDL
MODEL 8
REMARK VINA RESULT:    -6.088      5.971      8.930
REMARK INTER + INTRA:          -8.660
REMARK INTER:                  -7.017
REMARK INTRA:                  -1.644
REMARK UNBOUND:                -0.971
REMARK  Name = 
REMARK  7 active torsions:
REMARK  status: ('A' for Active; 'I' for Inactive)
REMARK    1  A    between atoms: C_1  and  C_2
REMARK    2  A    between atoms: C_2  and  C_3
REMARK    3  A    between atoms: C_3  and  C_4
REMARK    4  A    between atoms: C_4  and  C_5
REMARK    5  A    between atoms: C_9  and  C_10
REMARK    6  A    between atoms: C_13  and  N_14
REMARK    7  A    between atoms: C_24  and  C_25
REMARK                            x       y       z     vdW  Elec       q    Type
REMARK                         _______ _______ _______ _____ _____    ______ ____
ROOT
ATOM      1  C   UNL     1      15.712   2.146  47.828  0.00  0.00    +0.000 C 
ATOM      2  O   UNL     1      14.748   2.622  47.231  0.00  0.00    +0.000 OA
ATOM      3  N   UNL     1      15.623   1.073  48.731  0.00  0.00    +0.000 N 
ATOM      4  N   UNL     1      16.725   0.722  49.481  0.00  0.00    +0.000 NA
ATOM      5  C   UNL     1      16.563   0.765  50.776  0.00  0.00    +0.000 C 
ATOM      6  C   UNL     1      15.389   1.409  51.434  0.00  0.00    +0.000 A 
ATOM      7  C   UNL     1      15.640   2.482  52.302  0.00  0.00    +0.000 A 
ATOM      8  C   UNL     1      14.550   3.101  52.871  0.00  0.00    +0.000 A 
ATOM      9  C   UNL     1      13.268   2.648  52.664  0.00  0.00    +0.000 A 
ATOM     10  C   UNL     1      12.995   1.581  51.836  0.00  0.00    +0.000 A 
ATOM     11  C   UNL     1      14.067   0.993  51.143  0.00  0.00    +0.000 A 
ATOM     12  C   UNL     1      13.786  -0.068  50.111  0.00  0.00    +0.000 C 
ATOM     13  C   UNL     1      14.534   0.062  48.758  0.00  0.00    +0.000 C 
ATOM     14  C   UNL     1      13.599   0.021  47.547  0.00  0.00    +0.000 C 
ATOM     15  O   UNL     1      12.344   3.406  53.314  0.00  0.00    +0.000 OA
ATOM     16  C   UNL     1      13.172   4.510  53.735  0.00  0.00    +0.000 C 
ATOM     17  O   UNL     1      14.582   4.213  53.654  0.00  0.00    +0.000 OA
ENDROOT
BRANCH   5  18
ATOM     18  C   UNL     1      17.611   0.146  51.645  0.00  0.00    +0.000 A 
ATOM     19  C   UNL     1      17.274  -0.926  52.458  0.00  0.00    +0.000 A 
ATOM     20  C   UNL     1      18.218  -1.459  53.346  0.00  0.00    +0.000 A 
ATOM     21  C   UNL     1      19.484  -0.884  53.470  0.00  0.00    +0.000 A 
ATOM     22  C   UNL     1      19.834   0.156  52.603  0.00  0.00    +0.000 A 
ATOM     23  C   UNL     1      18.897   0.691  51.707  0.00  0.00    +0.000 A 
BRANCH  21  24
ATOM     24  N   UNL     1      20.453  -1.471  54.295  0.00  0.00    +0.000 N 
ATOM     25  H   UNL     1      20.225  -2.258  54.840  0.00  0.00    +0.000 HD
ATOM     26  H   UNL     1      21.364  -1.097  54.329  0.00  0.00    +0.000 HD
ENDBRANCH  21  24
ENDBRANCH   5  18
BRANCH   1  27
ATOM     27  C   UNL     1      17.124   2.703  47.639  0.00  0.00    +0.000 C 
BRANCH  27  28
ATOM     28  C   UNL     1      17.347   4.150  48.102  0.00  0.00    +0.000 C 
BRANCH  28  30
ATOM     29  C   UNL     1      18.479   4.087  50.407  0.00  0.00    +0.000 C 
ATOM     30  C   UNL     1      17.237   4.437  49.603  0.00  0.00    +0.000 C 
ENDBRANCH  28  30
ENDBRANCH  27  28
ENDBRANCH   1  27
TORSDOF 5
ENDMDL
MODEL 9
REMARK VINA RESULT:    -6.025      5.067      8.220
REMARK INTER + INTRA:          -8.581
REMARK INTER:                  -7.503
REMARK INTRA:                  -1.077
REMARK UNBOUND:                -0.971
REMARK  Name = 
REMARK  7 active torsions:
REMARK  status: ('A' for Active; 'I' for Inactive)
REMARK    1  A    between atoms: C_1  and  C_2
REMARK    2  A    between atoms: C_2  and  C_3
REMARK    3  A    between atoms: C_3  and  C_4
REMARK    4  A    between atoms: C_4  and  C_5
REMARK    5  A    between atoms: C_9  and  C_10
REMARK    6  A    between atoms: C_13  and  N_14
REMARK    7  A    between atoms: C_24  and  C_25
REMARK                            x       y       z     vdW  Elec       q    Type
REMARK                         _______ _______ _______ _____ _____    ______ ____
ROOT
ATOM      1  C   UNL     1      19.054   3.784  50.702  0.00  0.00    +0.000 C 
ATOM      2  O   UNL     1      19.000   4.906  50.201  0.00  0.00    +0.000 OA
ATOM      3  N   UNL     1      18.300   2.687  50.250  0.00  0.00    +0.000 N 
ATOM      4  N   UNL     1      18.296   1.518  50.981  0.00  0.00    +0.000 NA
ATOM      5  C   UNL     1      17.124   1.116  51.393  0.00  0.00    +0.000 C 
ATOM      6  C   UNL     1      15.901   1.969  51.345  0.00  0.00    +0.000 A 
ATOM      7  C   UNL     1      15.265   2.260  52.562  0.00  0.00    +0.000 A 
ATOM      8  C   UNL     1      14.164   3.083  52.517  0.00  0.00    +0.000 A 
ATOM      9  C   UNL     1      13.654   3.548  51.327  0.00  0.00    +0.000 A 
ATOM     10  C   UNL     1      14.243   3.257  50.116  0.00  0.00    +0.000 A 
ATOM     11  C   UNL     1      15.437   2.516  50.126  0.00  0.00    +0.000 A 
ATOM     12  C   UNL     1      16.192   2.317  48.837  0.00  0.00    +0.000 C 
ATOM     13  C   UNL     1      17.725   2.544  48.887  0.00  0.00    +0.000 C 
ATOM     14  C   UNL     1      18.224   3.522  47.820  0.00  0.00    +0.000 C 
ATOM     15  O   UNL     1      12.569   4.349  51.511  0.00  0.00    +0.000 OA
ATOM     16  C   UNL     1      12.622   4.523  52.942  0.00  0.00    +0.000 C 
ATOM     17  O   UNL     1      13.478   3.558  53.591  0.00  0.00    +0.000 OA
ENDROOT
BRANCH   5  18
ATOM     18  C   UNL     1      17.003  -0.267  51.950  0.00  0.00    +0.000 A 
ATOM     19  C   UNL     1      15.874  -1.020  51.663  0.00  0.00    +0.000 A 
ATOM     20  C   UNL     1      15.701  -2.280  52.251  0.00  0.00    +0.000 A 
ATOM     21  C   UNL     1      16.624  -2.768  53.177  0.00  0.00    +0.000 A 
ATOM     22  C   UNL     1      17.789  -2.029  53.413  0.00  0.00    +0.000 A 
ATOM     23  C   UNL     1      17.973  -0.770  52.823  0.00  0.00    +0.000 A 
BRANCH  21  24
ATOM     24  N   UNL     1      16.493  -4.063  53.696  0.00  0.00    +0.000 N 
ATOM     25  H   UNL     1      17.270  -4.513  54.099  0.00  0.00    +0.000 HD
ATOM     26  H   UNL     1      15.623  -4.523  53.659  0.00  0.00    +0.000 HD
ENDBRANCH  21  24
ENDBRANCH   5  18
BRANCH   1  27
ATOM     27  C   UNL     1      19.962   3.483  51.896  0.00  0.00    +0.000 C 
BRANCH  27  28
ATOM     28  C   UNL     1      21.437   3.205  51.570  0.00  0.00    +0.000 C 
BRANCH  28  30
ATOM     29  C   UNL     1      21.213   1.124  53.058  0.00  0.00    +0.000 C 
ATOM     30  C   UNL     1      22.008   1.845  51.982  0.00  0.00    +0.000 C 
ENDBRANCH  28  30
ENDBRANCH  27  28
ENDBRANCH   1  27
TORSDOF 5
ENDMDL
