MODEL 1
REMARK VINA RESULT:    -9.648      0.000      0.000
REMARK INTER + INTRA:         -12.100
REMARK INTER:                 -11.341
REMARK INTRA:                  -0.760
REMARK UNBOUND:                -0.760
REMARK  Name = 
REMARK  5 active torsions:
REMARK  status: ('A' for Active; 'I' for Inactive)
REMARK    1  A    between atoms: C_1  and  N_2
REMARK    2  A    between atoms: C_5  and  C_6
REMARK    3  A    between atoms: C_7  and  O_8
REMARK    4  A    between atoms: C_10  and  O_11
REMARK    5  A    between atoms: C_16  and  C_17
REMARK                            x       y       z     vdW  Elec       q    Type
REMARK                         _______ _______ _______ _____ _____    ______ ____
ROOT
ATOM      1  C   UNL     1      24.269  -0.340  54.114  0.00  0.00    +0.000 A 
ATOM      2  C   UNL     1      23.515  -1.137  54.996  0.00  0.00    +0.000 A 
ATOM      3  C   UNL     1      22.120  -1.076  55.015  0.00  0.00    +0.000 A 
ATOM      4  C   UNL     1      21.458  -0.206  54.153  0.00  0.00    +0.000 A 
ATOM      5  C   UNL     1      22.180   0.607  53.271  0.00  0.00    +0.000 A 
ATOM      6  C   UNL     1      21.513   1.558  52.367  0.00  0.00    +0.000 A 
ATOM      7  O   UNL     1      20.297   1.693  52.254  0.00  0.00    +0.000 OA
ATOM      8  C   UNL     1      22.382   2.405  51.538  0.00  0.00    +0.000 A 
ATOM      9  C   UNL     1      23.705   2.226  51.573  0.00  0.00    +0.000 A 
ATOM     10  O   UNL     1      24.342   1.312  52.393  0.00  0.00    +0.000 OA
ATOM     11  C   UNL     1      23.584   0.536  53.247  0.00  0.00    +0.000 A 
ENDROOT
BRANCH   1  16
ATOM     12  C   UNL     1      29.596   0.275  53.273  0.00  0.00    +0.000 C 
ATOM     13  N   UNL     1      28.674  -0.584  53.996  0.00  0.00    +0.000 N 
ATOM     14  C   UNL     1      27.982   0.063  55.103  0.00  0.00    +0.000 C 
ATOM     15  C   UNL     1      26.488   0.118  55.052  0.00  0.00    +0.000 C 
ATOM     16  C   UNL     1      25.744  -0.446  54.096  0.00  0.00    +0.000 C 
ATOM     17  C   UNL     1      26.379  -1.203  52.966  0.00  0.00    +0.000 C 
ATOM     18  C   UNL     1      27.888  -1.473  53.142  0.00  0.00    +0.000 C 
ATOM     19  H   UNL     1      29.264  -1.249  54.497  0.00  0.00    +0.000 HD
ENDBRANCH   1  16
BRANCH   9  20
ATOM     20  C   UNL     1      24.602   3.017  50.698  0.00  0.00    +0.000 A 
ATOM     21  C   UNL     1      24.109   4.102  49.961  0.00  0.00    +0.000 A 
ATOM     22  C   UNL     1      24.964   4.881  49.176  0.00  0.00    +0.000 A 
ATOM     23  C   UNL     1      26.325   4.589  49.119  0.00  0.00    +0.000 A 
ATOM     24  C   UNL     1      26.832   3.510  49.833  0.00  0.00    +0.000 A 
ATOM     25  C   UNL     1      25.978   2.733  50.619  0.00  0.00    +0.000 A 
ENDBRANCH   9  20
BRANCH   2  26
ATOM     26  O   UNL     1      24.159  -1.985  55.859  0.00  0.00    +0.000 OA
ATOM     27  H   UNL     1      23.864  -2.062  56.745  0.00  0.00    +0.000 HD
ENDBRANCH   2  26
BRANCH   4  28
ATOM     28  O   UNL     1      20.094  -0.154  54.192  0.00  0.00    +0.000 OA
ATOM     29  H   UNL     1      19.639   0.528  53.739  0.00  0.00    +0.000 HD
ENDBRANCH   4  28
TORSDOF 4
ENDMDL
MODEL 2
REMARK VINA RESULT:    -9.377      1.434      2.006
REMARK INTER + INTRA:         -11.782
REMARK INTER:                 -11.089
REMARK INTRA:                  -0.693
REMARK UNBOUND:                -0.760
REMARK  Name = 
REMARK  5 active torsions:
REMARK  status: ('A' for Active; 'I' for Inactive)
REMARK    1  A    between atoms: C_1  and  N_2
REMARK    2  A    between atoms: C_5  and  C_6
REMARK    3  A    between atoms: C_7  and  O_8
REMARK    4  A    between atoms: C_10  and  O_11
REMARK    5  A    between atoms: C_16  and  C_17
REMARK                            x       y       z     vdW  Elec       q    Type
REMARK                         _______ _______ _______ _____ _____    ______ ____
ROOT
ATOM      1  C   UNL     1      24.262  -0.327  53.995  0.00  0.00    +0.000 A 
ATOM      2  C   UNL     1      24.014  -1.195  55.074  0.00  0.00    +0.000 A 
ATOM      3  C   UNL     1      22.729  -1.679  55.335  0.00  0.00    +0.000 A 
ATOM      4  C   UNL     1      21.671  -1.291  54.518  0.00  0.00    +0.000 A 
ATOM      5  C   UNL     1      21.884  -0.421  53.443  0.00  0.00    +0.000 A 
ATOM      6  C   UNL     1      20.781   0.031  52.578  0.00  0.00    +0.000 A 
ATOM      7  O   UNL     1      19.614  -0.339  52.669  0.00  0.00    +0.000 OA
ATOM      8  C   UNL     1      21.120   0.999  51.525  0.00  0.00    +0.000 A 
ATOM      9  C   UNL     1      22.394   1.357  51.343  0.00  0.00    +0.000 A 
ATOM     10  O   UNL     1      23.443   0.913  52.127  0.00  0.00    +0.000 OA
ATOM     11  C   UNL     1      23.179   0.057  53.178  0.00  0.00    +0.000 A 
ENDROOT
BRANCH   1  16
ATOM     12  C   UNL     1      29.483   1.136  54.238  0.00  0.00    +0.000 C 
ATOM     13  N   UNL     1      28.385   1.081  53.289  0.00  0.00    +0.000 N 
ATOM     14  C   UNL     1      27.972  -0.266  52.917  0.00  0.00    +0.000 C 
ATOM     15  C   UNL     1      26.561  -0.667  53.210  0.00  0.00    +0.000 C 
ATOM     16  C   UNL     1      25.637   0.148  53.727  0.00  0.00    +0.000 C 
ATOM     17  C   UNL     1      25.962   1.575  54.060  0.00  0.00    +0.000 C 
ATOM     18  C   UNL     1      27.329   2.061  53.535  0.00  0.00    +0.000 C 
ATOM     19  H   UNL     1      28.775   1.415  52.408  0.00  0.00    +0.000 HD
ENDBRANCH   1  16
BRANCH   9  20
ATOM     20  C   UNL     1      22.775   2.276  50.246  0.00  0.00    +0.000 A 
ATOM     21  C   UNL     1      22.058   2.290  49.041  0.00  0.00    +0.000 A 
ATOM     22  C   UNL     1      22.383   3.194  48.025  0.00  0.00    +0.000 A 
ATOM     23  C   UNL     1      23.429   4.099  48.199  0.00  0.00    +0.000 A 
ATOM     24  C   UNL     1      24.160   4.094  49.382  0.00  0.00    +0.000 A 
ATOM     25  C   UNL     1      23.832   3.192  50.397  0.00  0.00    +0.000 A 
ENDBRANCH   9  20
BRANCH   2  26
ATOM     26  O   UNL     1      25.047  -1.569  55.893  0.00  0.00    +0.000 OA
ATOM     27  H   UNL     1      25.924  -1.582  55.563  0.00  0.00    +0.000 HD
ENDBRANCH   2  26
BRANCH   4  28
ATOM     28  O   UNL     1      20.421  -1.769  54.793  0.00  0.00    +0.000 OA
ATOM     29  H   UNL     1      19.879  -1.330  55.418  0.00  0.00    +0.000 HD
ENDBRANCH   4  28
TORSDOF 4
ENDMDL
MODEL 3
REMARK VINA RESULT:    -9.206      1.813      2.944
REMARK INTER + INTRA:         -11.581
REMARK INTER:                 -10.795
REMARK INTRA:                  -0.786
REMARK UNBOUND:                -0.760
REMARK  Name = 
REMARK  5 active torsions:
REMARK  status: ('A' for Active; 'I' for Inactive)
REMARK    1  A    between atoms: C_1  and  N_2
REMARK    2  A    between atoms: C_5  and  C_6
REMARK    3  A    between atoms: C_7  and  O_8
REMARK    4  A    between atoms: C_10  and  O_11
REMARK    5  A    between atoms: C_16  and  C_17
REMARK                            x       y       z     vdW  Elec       q    Type
REMARK                         _______ _______ _______ _____ _____    ______ ____
ROOT
ATOM      1  C   UNL     1      24.112   1.131  52.109  0.00  0.00    +0.000 A 
ATOM      2  C   UNL     1      23.110   0.284  52.616  0.00  0.00    +0.000 A 
ATOM      3  C   UNL     1      21.804   0.327  52.120  0.00  0.00    +0.000 A 
ATOM      4  C   UNL     1      21.483   1.230  51.110  0.00  0.00    +0.000 A 
ATOM      5  C   UNL     1      22.456   2.092  50.592  0.00  0.00    +0.000 A 
ATOM      6  C   UNL     1      22.142   3.078  49.544  0.00  0.00    +0.000 A 
ATOM      7  O   UNL     1      21.051   3.203  48.994  0.00  0.00    +0.000 OA
ATOM      8  C   UNL     1      23.231   3.974  49.131  0.00  0.00    +0.000 A 
ATOM      9  C   UNL     1      24.452   3.810  49.645  0.00  0.00    +0.000 A 
ATOM     10  O   UNL     1      24.767   2.865  50.605  0.00  0.00    +0.000 OA
ATOM     11  C   UNL     1      23.770   2.040  51.086  0.00  0.00    +0.000 A 
ENDROOT
BRANCH   1  16
ATOM     12  C   UNL     1      28.615   0.181  54.987  0.00  0.00    +0.000 C 
ATOM     13  N   UNL     1      28.196   0.831  53.757  0.00  0.00    +0.000 N 
ATOM     14  C   UNL     1      27.731  -0.079  52.718  0.00  0.00    +0.000 C 
ATOM     15  C   UNL     1      26.325   0.081  52.231  0.00  0.00    +0.000 C 
ATOM     16  C   UNL     1      25.492   1.044  52.634  0.00  0.00    +0.000 C 
ATOM     17  C   UNL     1      25.924   2.071  53.640  0.00  0.00    +0.000 C 
ATOM     18  C   UNL     1      27.434   2.062  53.958  0.00  0.00    +0.000 C 
ATOM     19  H   UNL     1      29.053   1.186  53.335  0.00  0.00    +0.000 HD
ENDBRANCH   1  16
BRANCH   9  20
ATOM     20  C   UNL     1      25.585   4.652  49.197  0.00  0.00    +0.000 A 
ATOM     21  C   UNL     1      26.885   4.131  49.136  0.00  0.00    +0.000 A 
ATOM     22  C   UNL     1      27.946   4.909  48.663  0.00  0.00    +0.000 A 
ATOM     23  C   UNL     1      27.723   6.218  48.242  0.00  0.00    +0.000 A 
ATOM     24  C   UNL     1      26.444   6.758  48.305  0.00  0.00    +0.000 A 
ATOM     25  C   UNL     1      25.384   5.979  48.775  0.00  0.00    +0.000 A 
ENDBRANCH   9  20
BRANCH   2  26
ATOM     26  O   UNL     1      23.413  -0.596  53.622  0.00  0.00    +0.000 OA
ATOM     27  H   UNL     1      23.880  -0.300  54.378  0.00  0.00    +0.000 HD
ENDBRANCH   2  26
BRANCH   4  28
ATOM     28  O   UNL     1      20.200   1.263  50.643  0.00  0.00    +0.000 OA
ATOM     29  H   UNL     1      19.936   0.679  49.960  0.00  0.00    +0.000 HD
ENDBRANCH   4  28
TORSDOF 4
ENDMDL
MODEL 4
REMARK VINA RESULT:    -9.158      2.023      5.284
REMARK INTER + INTRA:         -11.524
REMARK INTER:                 -10.637
REMARK INTRA:                  -0.887
REMARK UNBOUND:                -0.760
REMARK  Name = 
REMARK  5 active torsions:
REMARK  status: ('A' for Active; 'I' for Inactive)
REMARK    1  A    between atoms: C_1  and  N_2
REMARK    2  A    between atoms: C_5  and  C_6
REMARK    3  A    between atoms: C_7  and  O_8
REMARK    4  A    between atoms: C_10  and  O_11
REMARK    5  A    between atoms: C_16  and  C_17
REMARK                            x       y       z     vdW  Elec       q    Type
REMARK                         _______ _______ _______ _____ _____    ______ ____
ROOT
ATOM      1  C   UNL     1      22.295   1.548  52.365  0.00  0.00    +0.000 A 
ATOM      2  C   UNL     1      20.913   1.280  52.345  0.00  0.00    +0.000 A 
ATOM      3  C   UNL     1      20.359   0.275  53.142  0.00  0.00    +0.000 A 
ATOM      4  C   UNL     1      21.185  -0.482  53.967  0.00  0.00    +0.000 A 
ATOM      5  C   UNL     1      22.565  -0.245  54.002  0.00  0.00    +0.000 A 
ATOM      6  C   UNL     1      23.470  -1.047  54.842  0.00  0.00    +0.000 A 
ATOM      7  O   UNL     1      23.118  -1.935  55.614  0.00  0.00    +0.000 OA
ATOM      8  C   UNL     1      24.905  -0.748  54.740  0.00  0.00    +0.000 A 
ATOM      9  C   UNL     1      25.316   0.267  53.975  0.00  0.00    +0.000 A 
ATOM     10  O   UNL     1      24.471   1.049  53.208  0.00  0.00    +0.000 OA
ATOM     11  C   UNL     1      23.119   0.772  53.206  0.00  0.00    +0.000 A 
ENDROOT
BRANCH   1  16
ATOM     12  C   UNL     1      25.419   5.232  49.890  0.00  0.00    +0.000 C 
ATOM     13  N   UNL     1      24.038   4.783  49.921  0.00  0.00    +0.000 N 
ATOM     14  C   UNL     1      23.819   3.453  49.369  0.00  0.00    +0.000 C 
ATOM     15  C   UNL     1      23.242   2.411  50.274  0.00  0.00    +0.000 C 
ATOM     16  C   UNL     1      22.850   2.636  51.531  0.00  0.00    +0.000 C 
ATOM     17  C   UNL     1      22.965   4.001  52.145  0.00  0.00    +0.000 C 
ATOM     18  C   UNL     1      23.324   5.124  51.150  0.00  0.00    +0.000 C 
ATOM     19  H   UNL     1      23.553   5.361  49.234  0.00  0.00    +0.000 HD
ENDBRANCH   1  16
BRANCH   9  20
ATOM     20  C   UNL     1      26.749   0.636  53.906  0.00  0.00    +0.000 A 
ATOM     21  C   UNL     1      27.137   1.949  53.609  0.00  0.00    +0.000 A 
ATOM     22  C   UNL     1      28.487   2.311  53.597  0.00  0.00    +0.000 A 
ATOM     23  C   UNL     1      29.470   1.365  53.882  0.00  0.00    +0.000 A 
ATOM     24  C   UNL     1      29.106   0.053  54.168  0.00  0.00    +0.000 A 
ATOM     25  C   UNL     1      27.757  -0.306  54.183  0.00  0.00    +0.000 A 
ENDBRANCH   9  20
BRANCH   2  26
ATOM     26  O   UNL     1      20.094   2.010  51.523  0.00  0.00    +0.000 OA
ATOM     27  H   UNL     1      19.987   2.929  51.667  0.00  0.00    +0.000 HD
ENDBRANCH   2  26
BRANCH   4  28
ATOM     28  O   UNL     1      20.626  -1.464  54.733  0.00  0.00    +0.000 OA
ATOM     29  H   UNL     1      19.708  -1.448  54.917  0.00  0.00    +0.000 HD
ENDBRANCH   4  28
TORSDOF 4
ENDMDL
MODEL 5
REMARK VINA RESULT:    -9.083      2.606      5.220
REMARK INTER + INTRA:         -11.436
REMARK INTER:                 -10.572
REMARK INTRA:                  -0.864
REMARK UNBOUND:                -0.760
REMARK  Name = 
REMARK  5 active torsions:
REMARK  status: ('A' for Active; 'I' for Inactive)
REMARK    1  A    between atoms: C_1  and  N_2
REMARK    2  A    between atoms: C_5  and  C_6
REMARK    3  A    between atoms: C_7  and  O_8
REMARK    4  A    between atoms: C_10  and  O_11
REMARK    5  A    between atoms: C_16  and  C_17
REMARK                            x       y       z     vdW  Elec       q    Type
REMARK                         _______ _______ _______ _____ _____    ______ ____
ROOT
ATOM      1  C   UNL     1      22.078   0.136  53.374  0.00  0.00    +0.000 A 
ATOM      2  C   UNL     1      21.731  -0.816  54.351  0.00  0.00    +0.000 A 
ATOM      3  C   UNL     1      22.703  -1.407  55.162  0.00  0.00    +0.000 A 
ATOM      4  C   UNL     1      24.040  -1.057  55.000  0.00  0.00    +0.000 A 
ATOM      5  C   UNL     1      24.417  -0.120  54.030  0.00  0.00    +0.000 A 
ATOM      6  C   UNL     1      25.825   0.251  53.813  0.00  0.00    +0.000 A 
ATOM      7  O   UNL     1      26.775  -0.163  54.473  0.00  0.00    +0.000 OA
ATOM      8  C   UNL     1      26.100   1.193  52.720  0.00  0.00    +0.000 A 
ATOM      9  C   UNL     1      25.084   1.728  52.038  0.00  0.00    +0.000 A 
ATOM     10  O   UNL     1      23.755   1.413  52.255  0.00  0.00    +0.000 OA
ATOM     11  C   UNL     1      23.437   0.480  53.221  0.00  0.00    +0.000 A 
ENDROOT
BRANCH   1  16
ATOM     12  C   UNL     1      17.449   1.671  50.991  0.00  0.00    +0.000 C 
ATOM     13  N   UNL     1      18.872   1.956  50.945  0.00  0.00    +0.000 N 
ATOM     14  C   UNL     1      19.397   2.625  52.129  0.00  0.00    +0.000 C 
ATOM     15  C   UNL     1      20.469   1.927  52.905  0.00  0.00    +0.000 C 
ATOM     16  C   UNL     1      21.025   0.766  52.547  0.00  0.00    +0.000 C 
ATOM     17  C   UNL     1      20.598   0.056  51.296  0.00  0.00    +0.000 C 
ATOM     18  C   UNL     1      19.680   0.881  50.370  0.00  0.00    +0.000 C 
ATOM     19  H   UNL     1      18.977   2.689  50.244  0.00  0.00    +0.000 HD
ENDBRANCH   1  16
BRANCH   9  20
ATOM     20  C   UNL     1      25.327   2.732  50.977  0.00  0.00    +0.000 A 
ATOM     21  C   UNL     1      24.315   3.620  50.585  0.00  0.00    +0.000 A 
ATOM     22  C   UNL     1      24.559   4.603  49.622  0.00  0.00    +0.000 A 
ATOM     23  C   UNL     1      25.818   4.715  49.036  0.00  0.00    +0.000 A 
ATOM     24  C   UNL     1      26.832   3.837  49.402  0.00  0.00    +0.000 A 
ATOM     25  C   UNL     1      26.589   2.857  50.366  0.00  0.00    +0.000 A 
ENDBRANCH   9  20
BRANCH   2  26
ATOM     26  O   UNL     1      20.419  -1.179  54.506  0.00  0.00    +0.000 OA
ATOM     27  H   UNL     1      20.062  -1.875  53.990  0.00  0.00    +0.000 HD
ENDBRANCH   2  26
BRANCH   4  28
ATOM     28  O   UNL     1      24.976  -1.651  55.797  0.00  0.00    +0.000 OA
ATOM     29  H   UNL     1      25.654  -2.172  55.415  0.00  0.00    +0.000 HD
ENDBRANCH   4  28
TORSDOF 4
ENDMDL
MODEL 6
REMARK VINA RESULT:    -9.081      2.101      5.485
REMARK INTER + INTRA:         -11.434
REMARK INTER:                 -10.566
REMARK INTRA:                  -0.868
REMARK UNBOUND:                -0.760
REMARK  Name = 
REMARK  5 active torsions:
REMARK  status: ('A' for Active; 'I' for Inactive)
REMARK    1  A    between atoms: C_1  and  N_2
REMARK    2  A    between atoms: C_5  and  C_6
REMARK    3  A    between atoms: C_7  and  O_8
REMARK    4  A    between atoms: C_10  and  O_11
REMARK    5  A    between atoms: C_16  and  C_17
REMARK                            x       y       z     vdW  Elec       q    Type
REMARK                         _______ _______ _______ _____ _____    ______ ____
ROOT
ATOM      1  C   UNL     1      25.237   2.357  51.299  0.00  0.00    +0.000 A 
ATOM      2  C   UNL     1      25.986   3.286  50.554  0.00  0.00    +0.000 A 
ATOM      3  C   UNL     1      25.383   4.094  49.587  0.00  0.00    +0.000 A 
ATOM      4  C   UNL     1      24.017   3.977  49.348  0.00  0.00    +0.000 A 
ATOM      5  C   UNL     1      23.246   3.055  50.067  0.00  0.00    +0.000 A 
ATOM      6  C   UNL     1      21.805   2.886  49.818  0.00  0.00    +0.000 A 
ATOM      7  O   UNL     1      21.141   3.550  49.026  0.00  0.00    +0.000 OA
ATOM      8  C   UNL     1      21.119   1.838  50.588  0.00  0.00    +0.000 A 
ATOM      9  C   UNL     1      21.792   1.156  51.518  0.00  0.00    +0.000 A 
ATOM     10  O   UNL     1      23.138   1.329  51.784  0.00  0.00    +0.000 OA
ATOM     11  C   UNL     1      23.854   2.250  51.045  0.00  0.00    +0.000 A 
ENDROOT
BRANCH   1  16
ATOM     12  C   UNL     1      28.698  -0.037  54.727  0.00  0.00    +0.000 C 
ATOM     13  N   UNL     1      27.291  -0.065  54.364  0.00  0.00    +0.000 N 
ATOM     14  C   UNL     1      26.547   1.135  54.723  0.00  0.00    +0.000 C 
ATOM     15  C   UNL     1      25.898   1.907  53.618  0.00  0.00    +0.000 C 
ATOM     16  C   UNL     1      25.897   1.533  52.335  0.00  0.00    +0.000 C 
ATOM     17  C   UNL     1      26.570   0.265  51.898  0.00  0.00    +0.000 C 
ATOM     18  C   UNL     1      27.023  -0.653  53.052  0.00  0.00    +0.000 C 
ATOM     19  H   UNL     1      26.867  -0.751  54.988  0.00  0.00    +0.000 HD
ENDBRANCH   1  16
BRANCH   9  20
ATOM     20  C   UNL     1      21.111   0.142  52.357  0.00  0.00    +0.000 A 
ATOM     21  C   UNL     1      21.846  -0.690  53.213  0.00  0.00    +0.000 A 
ATOM     22  C   UNL     1      21.200  -1.610  54.044  0.00  0.00    +0.000 A 
ATOM     23  C   UNL     1      19.810  -1.711  54.034  0.00  0.00    +0.000 A 
ATOM     24  C   UNL     1      19.064  -0.903  53.184  0.00  0.00    +0.000 A 
ATOM     25  C   UNL     1      19.709   0.018  52.356  0.00  0.00    +0.000 A 
ENDBRANCH   9  20
BRANCH   2  26
ATOM     26  O   UNL     1      27.335   3.397  50.771  0.00  0.00    +0.000 OA
ATOM     27  H   UNL     1      27.885   2.642  50.695  0.00  0.00    +0.000 HD
ENDBRANCH   2  26
BRANCH   4  28
ATOM     28  O   UNL     1      23.447   4.770  48.394  0.00  0.00    +0.000 OA
ATOM     29  H   UNL     1      22.956   5.527  48.648  0.00  0.00    +0.000 HD
ENDBRANCH   4  28
TORSDOF 4
ENDMDL
MODEL 7
REMARK VINA RESULT:    -8.631      2.670      5.387
REMARK INTER + INTRA:         -10.904
REMARK INTER:                 -10.012
REMARK INTRA:                  -0.892
REMARK UNBOUND:                -0.760
REMARK  Name = 
REMARK  5 active torsions:
REMARK  status: ('A' for Active; 'I' for Inactive)
REMARK    1  A    between atoms: C_1  and  N_2
REMARK    2  A    between atoms: C_5  and  C_6
REMARK    3  A    between atoms: C_7  and  O_8
REMARK    4  A    between atoms: C_10  and  O_11
REMARK    5  A    between atoms: C_16  and  C_17
REMARK                            x       y       z     vdW  Elec       q    Type
REMARK                         _______ _______ _______ _____ _____    ______ ____
ROOT
ATOM      1  C   UNL     1      22.975   0.644  52.460  0.00  0.00    +0.000 A 
ATOM      2  C   UNL     1      22.807  -0.462  53.314  0.00  0.00    +0.000 A 
ATOM      3  C   UNL     1      23.894  -1.036  53.977  0.00  0.00    +0.000 A 
ATOM      4  C   UNL     1      25.169  -0.513  53.788  0.00  0.00    +0.000 A 
ATOM      5  C   UNL     1      25.370   0.581  52.938  0.00  0.00    +0.000 A 
ATOM      6  C   UNL     1      26.710   1.141  52.693  0.00  0.00    +0.000 A 
ATOM      7  O   UNL     1      27.745   0.759  53.233  0.00  0.00    +0.000 OA
ATOM      8  C   UNL     1      26.800   2.244  51.727  0.00  0.00    +0.000 A 
ATOM      9  C   UNL     1      25.684   2.741  51.186  0.00  0.00    +0.000 A 
ATOM     10  O   UNL     1      24.416   2.245  51.434  0.00  0.00    +0.000 OA
ATOM     11  C   UNL     1      24.274   1.163  52.278  0.00  0.00    +0.000 A 
ENDROOT
BRANCH   1  16
ATOM     12  C   UNL     1      19.527   3.709  49.599  0.00  0.00    +0.000 C 
ATOM     13  N   UNL     1      19.531   2.521  50.436  0.00  0.00    +0.000 N 
ATOM     14  C   UNL     1      20.215   1.373  49.856  0.00  0.00    +0.000 C 
ATOM     15  C   UNL     1      21.385   0.812  50.599  0.00  0.00    +0.000 C 
ATOM     16  C   UNL     1      21.802   1.249  51.791  0.00  0.00    +0.000 C 
ATOM     17  C   UNL     1      21.098   2.374  52.493  0.00  0.00    +0.000 C 
ATOM     18  C   UNL     1      19.755   2.788  51.856  0.00  0.00    +0.000 C 
ATOM     19  H   UNL     1      18.566   2.192  50.439  0.00  0.00    +0.000 HD
ENDBRANCH   1  16
BRANCH   9  20
ATOM     20  C   UNL     1      25.737   3.898  50.262  0.00  0.00    +0.000 A 
ATOM     21  C   UNL     1      26.917   4.211  49.574  0.00  0.00    +0.000 A 
ATOM     22  C   UNL     1      26.954   5.270  48.662  0.00  0.00    +0.000 A 
ATOM     23  C   UNL     1      25.811   6.031  48.423  0.00  0.00    +0.000 A 
ATOM     24  C   UNL     1      24.633   5.744  49.104  0.00  0.00    +0.000 A 
ATOM     25  C   UNL     1      24.597   4.684  50.013  0.00  0.00    +0.000 A 
ENDBRANCH   9  20
BRANCH   2  26
ATOM     26  O   UNL     1      21.557  -0.994  53.493  0.00  0.00    +0.000 OA
ATOM     27  H   UNL     1      20.994  -1.125  52.756  0.00  0.00    +0.000 HD
ENDBRANCH   2  26
BRANCH   4  28
ATOM     28  O   UNL     1      26.221  -1.092  54.439  0.00  0.00    +0.000 OA
ATOM     29  H   UNL     1      26.973  -0.580  54.661  0.00  0.00    +0.000 HD
ENDBRANCH   4  28
TORSDOF 4
ENDMDL
MODEL 8
REMARK VINA RESULT:    -8.074      2.482      5.866
REMARK INTER + INTRA:         -10.250
REMARK INTER:                  -9.745
REMARK INTRA:                  -0.505
REMARK UNBOUND:                -0.760
REMARK  Name = 
REMARK  5 active torsions:
REMARK  status: ('A' for Active; 'I' for Inactive)
REMARK    1  A    between atoms: C_1  and  N_2
REMARK    2  A    between atoms: C_5  and  C_6
REMARK    3  A    between atoms: C_7  and  O_8
REMARK    4  A    between atoms: C_10  and  O_11
REMARK    5  A    between atoms: C_16  and  C_17
REMARK                            x       y       z     vdW  Elec       q    Type
REMARK                         _______ _______ _______ _____ _____    ______ ____
ROOT
ATOM      1  C   UNL     1      23.320   4.034  50.846  0.00  0.00    +0.000 A 
ATOM      2  C   UNL     1      22.008   4.386  50.479  0.00  0.00    +0.000 A 
ATOM      3  C   UNL     1      20.907   3.662  50.943  0.00  0.00    +0.000 A 
ATOM      4  C   UNL     1      21.107   2.567  51.779  0.00  0.00    +0.000 A 
ATOM      5  C   UNL     1      22.401   2.187  52.154  0.00  0.00    +0.000 A 
ATOM      6  C   UNL     1      22.649   1.017  53.014  0.00  0.00    +0.000 A 
ATOM      7  O   UNL     1      21.778   0.314  53.519  0.00  0.00    +0.000 OA
ATOM      8  C   UNL     1      24.054   0.678  53.281  0.00  0.00    +0.000 A 
ATOM      9  C   UNL     1      25.024   1.471  52.818  0.00  0.00    +0.000 A 
ATOM     10  O   UNL     1      24.802   2.592  52.038  0.00  0.00    +0.000 OA
ATOM     11  C   UNL     1      23.506   2.922  51.693  0.00  0.00    +0.000 A 
ENDROOT
BRANCH   1  16
ATOM     12  C   UNL     1      26.763   7.181  48.069  0.00  0.00    +0.000 C 
ATOM     13  N   UNL     1      26.690   6.438  49.316  0.00  0.00    +0.000 N 
ATOM     14  C   UNL     1      25.757   6.982  50.294  0.00  0.00    +0.000 C 
ATOM     15  C   UNL     1      24.631   6.105  50.743  0.00  0.00    +0.000 C 
ATOM     16  C   UNL     1      24.465   4.835  50.361  0.00  0.00    +0.000 C 
ATOM     17  C   UNL     1      25.432   4.176  49.421  0.00  0.00    +0.000 C 
ATOM     18  C   UNL     1      26.718   4.986  49.151  0.00  0.00    +0.000 C 
ATOM     19  H   UNL     1      27.581   6.609  49.782  0.00  0.00    +0.000 HD
ENDBRANCH   1  16
BRANCH   9  20
ATOM     20  C   UNL     1      26.445   1.194  53.130  0.00  0.00    +0.000 A 
ATOM     21  C   UNL     1      26.940  -0.117  53.111  0.00  0.00    +0.000 A 
ATOM     22  C   UNL     1      28.292  -0.375  53.353  0.00  0.00    +0.000 A 
ATOM     23  C   UNL     1      29.171   0.674  53.615  0.00  0.00    +0.000 A 
ATOM     24  C   UNL     1      28.698   1.981  53.650  0.00  0.00    +0.000 A 
ATOM     25  C   UNL     1      27.347   2.238  53.405  0.00  0.00    +0.000 A 
ENDBRANCH   9  20
BRANCH   2  26
ATOM     26  O   UNL     1      21.802   5.452  49.643  0.00  0.00    +0.000 OA
ATOM     27  H   UNL     1      22.276   5.513  48.837  0.00  0.00    +0.000 HD
ENDBRANCH   2  26
BRANCH   4  28
ATOM     28  O   UNL     1      20.019   1.868  52.217  0.00  0.00    +0.000 OA
ATOM     29  H   UNL     1      20.121   0.990  52.527  0.00  0.00    +0.000 HD
ENDBRANCH   4  28
TORSDOF 4
ENDMDL
MODEL 9
REMARK VINA RESULT:    -7.727      2.800      6.311
REMARK INTER + INTRA:          -9.841
REMARK INTER:                  -8.970
REMARK INTRA:                  -0.871
REMARK UNBOUND:                -0.760
REMARK  Name = 
REMARK  5 active torsions:
REMARK  status: ('A' for Active; 'I' for Inactive)
REMARK    1  A    between atoms: C_1  and  N_2
REMARK    2  A    between atoms: C_5  and  C_6
REMARK    3  A    between atoms: C_7  and  O_8
REMARK    4  A    between atoms: C_10  and  O_11
REMARK    5  A    between atoms: C_16  and  C_17
REMARK                            x       y       z     vdW  Elec       q    Type
REMARK                         _______ _______ _______ _____ _____    ______ ____
ROOT
ATOM      1  C   UNL     1      22.398   3.996  49.729  0.00  0.00    +0.000 A 
ATOM      2  C   UNL     1      21.412   4.391  48.806  0.00  0.00    +0.000 A 
ATOM      3  C   UNL     1      20.252   3.635  48.617  0.00  0.00    +0.000 A 
ATOM      4  C   UNL     1      20.068   2.465  49.349  0.00  0.00    +0.000 A 
ATOM      5  C   UNL     1      21.035   2.042  50.268  0.00  0.00    +0.000 A 
ATOM      6  C   UNL     1      20.884   0.795  51.036  0.00  0.00    +0.000 A 
ATOM      7  O   UNL     1      19.905   0.054  50.996  0.00  0.00    +0.000 OA
ATOM      8  C   UNL     1      21.998   0.422  51.918  0.00  0.00    +0.000 A 
ATOM      9  C   UNL     1      23.040   1.247  52.051  0.00  0.00    +0.000 A 
ATOM     10  O   UNL     1      23.177   2.437  51.360  0.00  0.00    +0.000 OA
ATOM     11  C   UNL     1      22.196   2.808  50.463  0.00  0.00    +0.000 A 
ENDROOT
BRANCH   1  16
ATOM     12  C   UNL     1      26.398   7.653  49.420  0.00  0.00    +0.000 C 
ATOM     13  N   UNL     1      25.976   6.530  50.240  0.00  0.00    +0.000 N 
ATOM     14  C   UNL     1      24.765   6.766  51.016  0.00  0.00    +0.000 C 
ATOM     15  C   UNL     1      23.592   5.872  50.765  0.00  0.00    +0.000 C 
ATOM     16  C   UNL     1      23.604   4.830  49.928  0.00  0.00    +0.000 C 
ATOM     17  C   UNL     1      24.839   4.471  49.155  0.00  0.00    +0.000 C 
ATOM     18  C   UNL     1      26.111   5.228  49.589  0.00  0.00    +0.000 C 
ATOM     19  H   UNL     1      26.672   6.463  50.982  0.00  0.00    +0.000 HD
ENDBRANCH   1  16
BRANCH   9  20
ATOM     20  C   UNL     1      24.145   0.931  52.985  0.00  0.00    +0.000 A 
ATOM     21  C   UNL     1      24.208  -0.315  53.625  0.00  0.00    +0.000 A 
ATOM     22  C   UNL     1      25.279  -0.634  54.465  0.00  0.00    +0.000 A 
ATOM     23  C   UNL     1      26.303   0.287  54.677  0.00  0.00    +0.000 A 
ATOM     24  C   UNL     1      26.254   1.532  54.061  0.00  0.00    +0.000 A 
ATOM     25  C   UNL     1      25.185   1.849  53.220  0.00  0.00    +0.000 A 
ENDBRANCH   9  20
BRANCH   2  26
ATOM     26  O   UNL     1      21.593   5.532  48.069  0.00  0.00    +0.000 OA
ATOM     27  H   UNL     1      22.325   5.603  47.489  0.00  0.00    +0.000 HD
ENDBRANCH   2  26
BRANCH   4  28
ATOM     28  O   UNL     1      18.931   1.736  49.145  0.00  0.00    +0.000 OA
ATOM     29  H   UNL     1      18.991   0.826  48.932  0.00  0.00    +0.000 HD
ENDBRANCH   4  28
TORSDOF 4
ENDMDL
