MODEL 1
REMARK VINA RESULT:    -8.454      0.000      0.000
REMARK INTER + INTRA:         -10.398
REMARK INTER:                  -9.937
REMARK INTRA:                  -0.461
REMARK UNBOUND:                -0.461
REMARK  Name = 
REMARK  6 active torsions:
REMARK  status: ('A' for Active; 'I' for Inactive)
REMARK    1  A    between atoms: C_1  and  C_2
REMARK    2  A    between atoms: N_5  and  S_6
REMARK    3  A    between atoms: S_6  and  C_9
REMARK    4  A    between atoms: C_14  and  N_15
REMARK    5  A    between atoms: N_15  and  C_16
REMARK    6  A    between atoms: N_15  and  C_17
REMARK                            x       y       z     vdW  Elec       q    Type
REMARK                         _______ _______ _______ _____ _____    ______ ____
ROOT
ATOM      1  S   UNL     1      22.411   2.492  51.040  0.00  0.00    +0.000 S 
ATOM      2  O   UNL     1      22.299   3.379  49.902  0.00  0.00    +0.000 OA
ATOM      3  O   UNL     1      21.815   2.870  52.304  0.00  0.00    +0.000 OA
ENDROOT
BRANCH   1   8
ATOM      4  C   UNL     1      18.189  -1.196  53.209  0.00  0.00    +0.000 C 
ATOM      5  C   UNL     1      18.620  -0.312  52.076  0.00  0.00    +0.000 A 
ATOM      6  C   UNL     1      19.969   0.062  51.958  0.00  0.00    +0.000 A 
ATOM      7  C   UNL     1      20.366   0.800  50.857  0.00  0.00    +0.000 A 
ATOM      8  N   UNL     1      21.736   1.015  50.568  0.00  0.00    +0.000 N 
ATOM      9  N   UNL     1      19.501   1.191  49.906  0.00  0.00    +0.000 NA
ATOM     10  N   UNL     1      18.178   0.832  50.009  0.00  0.00    +0.000 NA
ATOM     11  C   UNL     1      17.763   0.084  51.056  0.00  0.00    +0.000 A 
ATOM     12 CL   UNL     1      16.117  -0.394  50.963  0.00  0.00    +0.000 Cl
ATOM     13  H   UNL     1      22.275   0.330  50.110  0.00  0.00    +0.000 HD
ENDBRANCH   1   8
BRANCH   1  14
ATOM     14  C   UNL     1      24.144   2.145  51.311  0.00  0.00    +0.000 A 
ATOM     15  C   UNL     1      25.023   2.844  50.478  0.00  0.00    +0.000 A 
ATOM     16  C   UNL     1      26.378   2.783  50.713  0.00  0.00    +0.000 A 
ATOM     17  C   UNL     1      26.854   1.972  51.739  0.00  0.00    +0.000 A 
ATOM     18  C   UNL     1      26.045   1.077  52.469  0.00  0.00    +0.000 A 
ATOM     19  C   UNL     1      26.602   0.089  53.370  0.00  0.00    +0.000 A 
ATOM     20  C   UNL     1      25.687  -0.746  54.036  0.00  0.00    +0.000 A 
ATOM     21  C   UNL     1      24.309  -0.593  53.907  0.00  0.00    +0.000 A 
ATOM     22  C   UNL     1      23.792   0.380  53.056  0.00  0.00    +0.000 A 
ATOM     23  C   UNL     1      24.628   1.203  52.277  0.00  0.00    +0.000 A 
BRANCH  19  24
ATOM     24  N   UNL     1      27.983  -0.064  53.609  0.00  0.00    +0.000 N 
ATOM     25  C   UNL     1      28.620   0.602  54.748  0.00  0.00    +0.000 C 
ATOM     26  C   UNL     1      28.661  -1.305  53.209  0.00  0.00    +0.000 C 
ENDBRANCH  19  24
ENDBRANCH   1  14
TORSDOF 3
ENDMDL
MODEL 2
REMARK VINA RESULT:    -8.401      4.644      7.149
REMARK INTER + INTRA:         -10.336
REMARK INTER:                 -10.047
REMARK INTRA:                  -0.289
REMARK UNBOUND:                -0.461
REMARK  Name = 
REMARK  6 active torsions:
REMARK  status: ('A' for Active; 'I' for Inactive)
REMARK    1  A    between atoms: C_1  and  C_2
REMARK    2  A    between atoms: N_5  and  S_6
REMARK    3  A    between atoms: S_6  and  C_9
REMARK    4  A    between atoms: C_14  and  N_15
REMARK    5  A    between atoms: N_15  and  C_16
REMARK    6  A    between atoms: N_15  and  C_17
REMARK                            x       y       z     vdW  Elec       q    Type
REMARK                         _______ _______ _______ _____ _____    ______ ____
ROOT
ATOM      1  S   UNL     1      23.769   3.939  51.132  0.00  0.00    +0.000 S 
ATOM      2  O   UNL     1      23.872   3.006  50.031  0.00  0.00    +0.000 OA
ATOM      3  O   UNL     1      22.492   4.139  51.784  0.00  0.00    +0.000 OA
ENDROOT
BRANCH   1   8
ATOM      4  C   UNL     1      24.541  -1.023  54.436  0.00  0.00    +0.000 C 
ATOM      5  C   UNL     1      25.112  -0.112  53.391  0.00  0.00    +0.000 A 
ATOM      6  C   UNL     1      24.599   1.187  53.243  0.00  0.00    +0.000 A 
ATOM      7  C   UNL     1      25.198   2.047  52.339  0.00  0.00    +0.000 A 
ATOM      8  N   UNL     1      24.874   3.425  52.304  0.00  0.00    +0.000 N 
ATOM      9  N   UNL     1      26.242   1.674  51.579  0.00  0.00    +0.000 NA
ATOM     10  N   UNL     1      26.754   0.405  51.713  0.00  0.00    +0.000 NA
ATOM     11  C   UNL     1      26.212  -0.449  52.611  0.00  0.00    +0.000 A 
ATOM     12 CL   UNL     1      27.053  -1.939  52.752  0.00  0.00    +0.000 Cl
ATOM     13  H   UNL     1      25.277   4.060  52.939  0.00  0.00    +0.000 HD
ENDBRANCH   1   8
BRANCH   1  14
ATOM     14  C   UNL     1      24.380   5.525  50.581  0.00  0.00    +0.000 A 
ATOM     15  C   UNL     1      23.546   6.611  50.867  0.00  0.00    +0.000 A 
ATOM     16  C   UNL     1      23.993   7.893  50.642  0.00  0.00    +0.000 A 
ATOM     17  C   UNL     1      25.248   8.084  50.071  0.00  0.00    +0.000 A 
ATOM     18  C   UNL     1      26.043   7.038  49.559  0.00  0.00    +0.000 A 
ATOM     19  C   UNL     1      27.234   7.283  48.772  0.00  0.00    +0.000 A 
ATOM     20  C   UNL     1      27.936   6.153  48.318  0.00  0.00    +0.000 A 
ATOM     21  C   UNL     1      27.564   4.857  48.663  0.00  0.00    +0.000 A 
ATOM     22  C   UNL     1      26.431   4.641  49.443  0.00  0.00    +0.000 A 
ATOM     23  C   UNL     1      25.611   5.704  49.868  0.00  0.00    +0.000 A 
BRANCH  19  24
ATOM     24  N   UNL     1      27.712   8.572  48.456  0.00  0.00    +0.000 N 
ATOM     25  C   UNL     1      28.684   9.240  49.326  0.00  0.00    +0.000 C 
ATOM     26  C   UNL     1      27.807   8.992  47.051  0.00  0.00    +0.000 C 
ENDBRANCH  19  24
ENDBRANCH   1  14
TORSDOF 3
ENDMDL
MODEL 3
REMARK VINA RESULT:    -8.255      4.063      6.276
REMARK INTER + INTRA:         -10.164
REMARK INTER:                  -9.601
REMARK INTRA:                  -0.563
REMARK UNBOUND:                -0.461
REMARK  Name = 
REMARK  6 active torsions:
REMARK  status: ('A' for Active; 'I' for Inactive)
REMARK    1  A    between atoms: C_1  and  C_2
REMARK    2  A    between atoms: N_5  and  S_6
REMARK    3  A    between atoms: S_6  and  C_9
REMARK    4  A    between atoms: C_14  and  N_15
REMARK    5  A    between atoms: N_15  and  C_16
REMARK    6  A    between atoms: N_15  and  C_17
REMARK                            x       y       z     vdW  Elec       q    Type
REMARK                         _______ _______ _______ _____ _____    ______ ____
ROOT
ATOM      1  S   UNL     1      23.244   3.753  50.837  0.00  0.00    +0.000 S 
ATOM      2  O   UNL     1      22.140   4.115  49.974  0.00  0.00    +0.000 OA
ATOM      3  O   UNL     1      23.169   4.041  52.254  0.00  0.00    +0.000 OA
ENDROOT
BRANCH   1   8
ATOM      4  C   UNL     1      24.986  -0.760  54.405  0.00  0.00    +0.000 C 
ATOM      5  C   UNL     1      23.891  -0.181  53.561  0.00  0.00    +0.000 A 
ATOM      6  C   UNL     1      24.192   0.808  52.609  0.00  0.00    +0.000 A 
ATOM      7  C   UNL     1      23.187   1.264  51.775  0.00  0.00    +0.000 A 
ATOM      8  N   UNL     1      23.471   2.087  50.658  0.00  0.00    +0.000 N 
ATOM      9  N   UNL     1      21.925   0.810  51.858  0.00  0.00    +0.000 NA
ATOM     10  N   UNL     1      21.616  -0.157  52.785  0.00  0.00    +0.000 NA
ATOM     11  C   UNL     1      22.582  -0.648  53.594  0.00  0.00    +0.000 A 
ATOM     12 CL   UNL     1      22.063  -1.943  54.594  0.00  0.00    +0.000 Cl
ATOM     13  H   UNL     1      23.790   1.704  49.809  0.00  0.00    +0.000 HD
ENDBRANCH   1   8
BRANCH   1  14
ATOM     14  C   UNL     1      24.732   4.498  50.185  0.00  0.00    +0.000 A 
ATOM     15  C   UNL     1      25.740   3.593  49.832  0.00  0.00    +0.000 A 
ATOM     16  C   UNL     1      26.856   4.042  49.164  0.00  0.00    +0.000 A 
ATOM     17  C   UNL     1      26.993   5.403  48.908  0.00  0.00    +0.000 A 
ATOM     18  C   UNL     1      26.128   6.389  49.427  0.00  0.00    +0.000 A 
ATOM     19  C   UNL     1      26.420   7.804  49.333  0.00  0.00    +0.000 A 
ATOM     20  C   UNL     1      25.477   8.684  49.893  0.00  0.00    +0.000 A 
ATOM     21  C   UNL     1      24.279   8.238  50.444  0.00  0.00    +0.000 A 
ATOM     22  C   UNL     1      24.002   6.875  50.502  0.00  0.00    +0.000 A 
ATOM     23  C   UNL     1      24.926   5.911  50.051  0.00  0.00    +0.000 A 
BRANCH  19  24
ATOM     24  N   UNL     1      27.575   8.326  48.714  0.00  0.00    +0.000 N 
ATOM     25  C   UNL     1      27.580   8.628  47.280  0.00  0.00    +0.000 C 
ATOM     26  C   UNL     1      28.503   9.163  49.486  0.00  0.00    +0.000 C 
ENDBRANCH  19  24
ENDBRANCH   1  14
TORSDOF 3
ENDMDL
MODEL 4
REMARK VINA RESULT:    -8.090      3.336      5.043
REMARK INTER + INTRA:          -9.970
REMARK INTER:                  -9.447
REMARK INTRA:                  -0.523
REMARK UNBOUND:                -0.461
REMARK  Name = 
REMARK  6 active torsions:
REMARK  status: ('A' for Active; 'I' for Inactive)
REMARK    1  A    between atoms: C_1  and  C_2
REMARK    2  A    between atoms: N_5  and  S_6
REMARK    3  A    between atoms: S_6  and  C_9
REMARK    4  A    between atoms: C_14  and  N_15
REMARK    5  A    between atoms: N_15  and  C_16
REMARK    6  A    between atoms: N_15  and  C_17
REMARK                            x       y       z     vdW  Elec       q    Type
REMARK                         _______ _______ _______ _____ _____    ______ ____
ROOT
ATOM      1  S   UNL     1      21.604   1.988  51.517  0.00  0.00    +0.000 S 
ATOM      2  O   UNL     1      20.318   1.354  51.710  0.00  0.00    +0.000 OA
ATOM      3  O   UNL     1      22.111   2.184  50.174  0.00  0.00    +0.000 OA
ENDROOT
BRANCH   1   8
ATOM      4  C   UNL     1      24.481   7.237  50.964  0.00  0.00    +0.000 C 
ATOM      5  C   UNL     1      23.175   6.507  50.864  0.00  0.00    +0.000 A 
ATOM      6  C   UNL     1      23.024   5.259  51.491  0.00  0.00    +0.000 A 
ATOM      7  C   UNL     1      21.786   4.642  51.467  0.00  0.00    +0.000 A 
ATOM      8  N   UNL     1      21.513   3.502  52.263  0.00  0.00    +0.000 N 
ATOM      9  N   UNL     1      20.726   5.185  50.845  0.00  0.00    +0.000 NA
ATOM     10  N   UNL     1      20.860   6.406  50.226  0.00  0.00    +0.000 NA
ATOM     11  C   UNL     1      22.048   7.050  50.259  0.00  0.00    +0.000 A 
ATOM     12 CL   UNL     1      22.010   8.620  49.564  0.00  0.00    +0.000 Cl
ATOM     13  H   UNL     1      21.280   3.589  53.216  0.00  0.00    +0.000 HD
ENDBRANCH   1   8
BRANCH   1  14
ATOM     14  C   UNL     1      22.824   1.080  52.456  0.00  0.00    +0.000 A 
ATOM     15  C   UNL     1      22.300   0.201  53.409  0.00  0.00    +0.000 A 
ATOM     16  C   UNL     1      23.138  -0.670  54.068  0.00  0.00    +0.000 A 
ATOM     17  C   UNL     1      24.506  -0.615  53.819  0.00  0.00    +0.000 A 
ATOM     18  C   UNL     1      25.121   0.388  53.041  0.00  0.00    +0.000 A 
ATOM     19  C   UNL     1      26.558   0.552  52.984  0.00  0.00    +0.000 A 
ATOM     20  C   UNL     1      27.045   1.593  52.173  0.00  0.00    +0.000 A 
ATOM     21  C   UNL     1      26.205   2.386  51.396  0.00  0.00    +0.000 A 
ATOM     22  C   UNL     1      24.827   2.196  51.443  0.00  0.00    +0.000 A 
ATOM     23  C   UNL     1      24.239   1.240  52.295  0.00  0.00    +0.000 A 
BRANCH  19  24
ATOM     24  N   UNL     1      27.469  -0.269  53.682  0.00  0.00    +0.000 N 
ATOM     25  C   UNL     1      28.104  -1.410  53.017  0.00  0.00    +0.000 C 
ATOM     26  C   UNL     1      28.286   0.299  54.763  0.00  0.00    +0.000 C 
ENDBRANCH  19  24
ENDBRANCH   1  14
TORSDOF 3
ENDMDL
MODEL 5
REMARK VINA RESULT:    -7.775      3.606      8.109
REMARK INTER + INTRA:          -9.600
REMARK INTER:                  -9.076
REMARK INTRA:                  -0.524
REMARK UNBOUND:                -0.461
REMARK  Name = 
REMARK  6 active torsions:
REMARK  status: ('A' for Active; 'I' for Inactive)
REMARK    1  A    between atoms: C_1  and  C_2
REMARK    2  A    between atoms: N_5  and  S_6
REMARK    3  A    between atoms: S_6  and  C_9
REMARK    4  A    between atoms: C_14  and  N_15
REMARK    5  A    between atoms: N_15  and  C_16
REMARK    6  A    between atoms: N_15  and  C_17
REMARK                            x       y       z     vdW  Elec       q    Type
REMARK                         _______ _______ _______ _____ _____    ______ ____
ROOT
ATOM      1  S   UNL     1      23.928   1.628  52.640  0.00  0.00    +0.000 S 
ATOM      2  O   UNL     1      23.829   2.996  53.103  0.00  0.00    +0.000 OA
ATOM      3  O   UNL     1      24.571   1.347  51.374  0.00  0.00    +0.000 OA
ENDROOT
BRANCH   1   8
ATOM      4  C   UNL     1      28.086  -2.711  52.746  0.00  0.00    +0.000 C 
ATOM      5  C   UNL     1      27.740  -1.298  53.109  0.00  0.00    +0.000 A 
ATOM      6  C   UNL     1      26.394  -0.897  53.145  0.00  0.00    +0.000 A 
ATOM      7  C   UNL     1      26.086   0.383  53.572  0.00  0.00    +0.000 A 
ATOM      8  N   UNL     1      24.751   0.770  53.842  0.00  0.00    +0.000 N 
ATOM      9  N   UNL     1      27.034   1.265  53.932  0.00  0.00    +0.000 NA
ATOM     10  N   UNL     1      28.355   0.887  53.901  0.00  0.00    +0.000 NA
ATOM     11  C   UNL     1      28.687  -0.367  53.520  0.00  0.00    +0.000 A 
ATOM     12 CL   UNL     1      30.361  -0.721  53.669  0.00  0.00    +0.000 Cl
ATOM     13  H   UNL     1      24.318   0.547  54.698  0.00  0.00    +0.000 HD
ENDBRANCH   1   8
BRANCH   1  14
ATOM     14  C   UNL     1      22.285   0.927  52.611  0.00  0.00    +0.000 A 
ATOM     15  C   UNL     1      22.056  -0.080  53.555  0.00  0.00    +0.000 A 
ATOM     16  C   UNL     1      20.782  -0.569  53.734  0.00  0.00    +0.000 A 
ATOM     17  C   UNL     1      19.752  -0.097  52.926  0.00  0.00    +0.000 A 
ATOM     18  C   UNL     1      19.954   0.750  51.816  0.00  0.00    +0.000 A 
ATOM     19  C   UNL     1      18.902   1.042  50.864  0.00  0.00    +0.000 A 
ATOM     20  C   UNL     1      19.233   1.899  49.799  0.00  0.00    +0.000 A 
ATOM     21  C   UNL     1      20.481   2.506  49.693  0.00  0.00    +0.000 A 
ATOM     22  C   UNL     1      21.472   2.235  50.633  0.00  0.00    +0.000 A 
ATOM     23  C   UNL     1      21.265   1.318  51.683  0.00  0.00    +0.000 A 
BRANCH  19  24
ATOM     24  N   UNL     1      17.594   0.526  50.959  0.00  0.00    +0.000 N 
ATOM     25  C   UNL     1      16.561   1.244  51.712  0.00  0.00    +0.000 C 
ATOM     26  C   UNL     1      17.049  -0.293  49.867  0.00  0.00    +0.000 C 
ENDBRANCH  19  24
ENDBRANCH   1  14
TORSDOF 3
ENDMDL
MODEL 6
REMARK VINA RESULT:    -7.748      4.491      7.132
REMARK INTER + INTRA:          -9.568
REMARK INTER:                  -9.550
REMARK INTRA:                  -0.018
REMARK UNBOUND:                -0.461
REMARK  Name = 
REMARK  6 active torsions:
REMARK  status: ('A' for Active; 'I' for Inactive)
REMARK    1  A    between atoms: C_1  and  C_2
REMARK    2  A    between atoms: N_5  and  S_6
REMARK    3  A    between atoms: S_6  and  C_9
REMARK    4  A    between atoms: C_14  and  N_15
REMARK    5  A    between atoms: N_15  and  C_16
REMARK    6  A    between atoms: N_15  and  C_17
REMARK                            x       y       z     vdW  Elec       q    Type
REMARK                         _______ _______ _______ _____ _____    ______ ____
ROOT
ATOM      1  S   UNL     1      23.337   3.940  50.072  0.00  0.00    +0.000 S 
ATOM      2  O   UNL     1      22.438   5.054  49.860  0.00  0.00    +0.000 OA
ATOM      3  O   UNL     1      23.726   3.110  48.951  0.00  0.00    +0.000 OA
ENDROOT
BRANCH   1   8
ATOM      4  C   UNL     1      28.869   5.236  48.112  0.00  0.00    +0.000 C 
ATOM      5  C   UNL     1      27.592   5.761  48.698  0.00  0.00    +0.000 A 
ATOM      6  C   UNL     1      26.694   4.876  49.316  0.00  0.00    +0.000 A 
ATOM      7  C   UNL     1      25.565   5.387  49.932  0.00  0.00    +0.000 A 
ATOM      8  N   UNL     1      24.744   4.580  50.757  0.00  0.00    +0.000 N 
ATOM      9  N   UNL     1      25.287   6.702  49.941  0.00  0.00    +0.000 NA
ATOM     10  N   UNL     1      26.157   7.579  49.339  0.00  0.00    +0.000 NA
ATOM     11  C   UNL     1      27.286   7.115  48.756  0.00  0.00    +0.000 A 
ATOM     12 CL   UNL     1      28.329   8.349  48.176  0.00  0.00    +0.000 Cl
ATOM     13  H   UNL     1      24.985   4.397  51.694  0.00  0.00    +0.000 HD
ENDBRANCH   1   8
BRANCH   1  14
ATOM     14  C   UNL     1      22.639   2.891  51.340  0.00  0.00    +0.000 A 
ATOM     15  C   UNL     1      21.333   3.214  51.721  0.00  0.00    +0.000 A 
ATOM     16  C   UNL     1      20.640   2.374  52.562  0.00  0.00    +0.000 A 
ATOM     17  C   UNL     1      21.277   1.245  53.071  0.00  0.00    +0.000 A 
ATOM     18  C   UNL     1      22.652   0.980  52.904  0.00  0.00    +0.000 A 
ATOM     19  C   UNL     1      23.330  -0.074  53.629  0.00  0.00    +0.000 A 
ATOM     20  C   UNL     1      24.704  -0.233  53.374  0.00  0.00    +0.000 A 
ATOM     21  C   UNL     1      25.377   0.525  52.420  0.00  0.00    +0.000 A 
ATOM     22  C   UNL     1      24.702   1.516  51.714  0.00  0.00    +0.000 A 
ATOM     23  C   UNL     1      23.348   1.813  51.964  0.00  0.00    +0.000 A 
BRANCH  19  24
ATOM     24  N   UNL     1      22.690  -0.931  54.548  0.00  0.00    +0.000 N 
ATOM     25  C   UNL     1      21.601  -1.810  54.113  0.00  0.00    +0.000 C 
ATOM     26  C   UNL     1      23.437  -1.459  55.698  0.00  0.00    +0.000 C 
ENDBRANCH  19  24
ENDBRANCH   1  14
TORSDOF 3
ENDMDL
MODEL 7
REMARK VINA RESULT:    -7.742      3.562      4.676
REMARK INTER + INTRA:          -9.562
REMARK INTER:                  -9.482
REMARK INTRA:                  -0.080
REMARK UNBOUND:                -0.461
REMARK  Name = 
REMARK  6 active torsions:
REMARK  status: ('A' for Active; 'I' for Inactive)
REMARK    1  A    between atoms: C_1  and  C_2
REMARK    2  A    between atoms: N_5  and  S_6
REMARK    3  A    between atoms: S_6  and  C_9
REMARK    4  A    between atoms: C_14  and  N_15
REMARK    5  A    between atoms: N_15  and  C_16
REMARK    6  A    between atoms: N_15  and  C_17
REMARK                            x       y       z     vdW  Elec       q    Type
REMARK                         _______ _______ _______ _____ _____    ______ ____
ROOT
ATOM      1  S   UNL     1      22.381   2.377  51.249  0.00  0.00    +0.000 S 
ATOM      2  O   UNL     1      21.636   1.360  51.960  0.00  0.00    +0.000 OA
ATOM      3  O   UNL     1      22.121   2.602  49.842  0.00  0.00    +0.000 OA
ENDROOT
BRANCH   1   8
ATOM      4  C   UNL     1      24.206   8.068  50.609  0.00  0.00    +0.000 C 
ATOM      5  C   UNL     1      23.046   7.117  50.622  0.00  0.00    +0.000 A 
ATOM      6  C   UNL     1      23.191   5.849  51.208  0.00  0.00    +0.000 A 
ATOM      7  C   UNL     1      22.086   5.020  51.294  0.00  0.00    +0.000 A 
ATOM      8  N   UNL     1      22.113   3.832  52.065  0.00  0.00    +0.000 N 
ATOM      9  N   UNL     1      20.882   5.378  50.817  0.00  0.00    +0.000 NA
ATOM     10  N   UNL     1      20.726   6.617  50.241  0.00  0.00    +0.000 NA
ATOM     11  C   UNL     1      21.778   7.463  50.170  0.00  0.00    +0.000 A 
ATOM     12 CL   UNL     1      21.384   9.016  49.552  0.00  0.00    +0.000 Cl
ATOM     13  H   UNL     1      21.981   3.854  53.041  0.00  0.00    +0.000 HD
ENDBRANCH   1   8
BRANCH   1  14
ATOM     14  C   UNL     1      24.124   2.041  51.457  0.00  0.00    +0.000 A 
ATOM     15  C   UNL     1      24.967   2.732  50.580  0.00  0.00    +0.000 A 
ATOM     16  C   UNL     1      26.331   2.680  50.763  0.00  0.00    +0.000 A 
ATOM     17  C   UNL     1      26.850   1.887  51.782  0.00  0.00    +0.000 A 
ATOM     18  C   UNL     1      26.075   0.999  52.555  0.00  0.00    +0.000 A 
ATOM     19  C   UNL     1      26.671   0.027  53.448  0.00  0.00    +0.000 A 
ATOM     20  C   UNL     1      25.787  -0.802  54.161  0.00  0.00    +0.000 A 
ATOM     21  C   UNL     1      24.405  -0.658  54.084  0.00  0.00    +0.000 A 
ATOM     22  C   UNL     1      23.850   0.301  53.240  0.00  0.00    +0.000 A 
ATOM     23  C   UNL     1      24.651   1.116  52.417  0.00  0.00    +0.000 A 
BRANCH  19  24
ATOM     24  N   UNL     1      28.061  -0.116  53.635  0.00  0.00    +0.000 N 
ATOM     25  C   UNL     1      28.738   0.561  54.745  0.00  0.00    +0.000 C 
ATOM     26  C   UNL     1      28.732  -1.356  53.219  0.00  0.00    +0.000 C 
ENDBRANCH  19  24
ENDBRANCH   1  14
TORSDOF 3
ENDMDL
MODEL 8
REMARK VINA RESULT:    -7.728      3.554      7.405
REMARK INTER + INTRA:          -9.545
REMARK INTER:                 -10.062
REMARK INTRA:                   0.517
REMARK UNBOUND:                -0.461
REMARK  Name = 
REMARK  6 active torsions:
REMARK  status: ('A' for Active; 'I' for Inactive)
REMARK    1  A    between atoms: C_1  and  C_2
REMARK    2  A    between atoms: N_5  and  S_6
REMARK    3  A    between atoms: S_6  and  C_9
REMARK    4  A    between atoms: C_14  and  N_15
REMARK    5  A    between atoms: N_15  and  C_16
REMARK    6  A    between atoms: N_15  and  C_17
REMARK                            x       y       z     vdW  Elec       q    Type
REMARK                         _______ _______ _______ _____ _____    ______ ____
ROOT
ATOM      1  S   UNL     1      24.032   2.671  52.432  0.00  0.00    +0.000 S 
ATOM      2  O   UNL     1      24.205   4.030  52.899  0.00  0.00    +0.000 OA
ATOM      3  O   UNL     1      24.605   2.271  51.164  0.00  0.00    +0.000 OA
ENDROOT
BRANCH   1   8
ATOM      4  C   UNL     1      27.371  -2.327  52.520  0.00  0.00    +0.000 C 
ATOM      5  C   UNL     1      27.269  -0.881  52.904  0.00  0.00    +0.000 A 
ATOM      6  C   UNL     1      26.013  -0.253  52.928  0.00  0.00    +0.000 A 
ATOM      7  C   UNL     1      25.925   1.055  53.372  0.00  0.00    +0.000 A 
ATOM      8  N   UNL     1      24.673   1.664  53.630  0.00  0.00    +0.000 N 
ATOM      9  N   UNL     1      27.004   1.753  53.763  0.00  0.00    +0.000 NA
ATOM     10  N   UNL     1      28.240   1.151  53.744  0.00  0.00    +0.000 NA
ATOM     11  C   UNL     1      28.356  -0.135  53.345  0.00  0.00    +0.000 A 
ATOM     12 CL   UNL     1      29.940  -0.778  53.513  0.00  0.00    +0.000 Cl
ATOM     13  H   UNL     1      24.192   1.507  54.475  0.00  0.00    +0.000 HD
ENDBRANCH   1   8
BRANCH   1  14
ATOM     14  C   UNL     1      22.283   2.306  52.405  0.00  0.00    +0.000 A 
ATOM     15  C   UNL     1      21.463   3.375  52.030  0.00  0.00    +0.000 A 
ATOM     16  C   UNL     1      20.121   3.161  51.811  0.00  0.00    +0.000 A 
ATOM     17  C   UNL     1      19.591   1.893  52.031  0.00  0.00    +0.000 A 
ATOM     18  C   UNL     1      20.312   0.833  52.617  0.00  0.00    +0.000 A 
ATOM     19  C   UNL     1      19.676  -0.397  53.039  0.00  0.00    +0.000 A 
ATOM     20  C   UNL     1      20.508  -1.376  53.612  0.00  0.00    +0.000 A 
ATOM     21  C   UNL     1      21.888  -1.217  53.706  0.00  0.00    +0.000 A 
ATOM     22  C   UNL     1      22.486  -0.038  53.270  0.00  0.00    +0.000 A 
ATOM     23  C   UNL     1      21.726   1.036  52.767  0.00  0.00    +0.000 A 
BRANCH  19  24
ATOM     24  N   UNL     1      18.297  -0.655  52.897  0.00  0.00    +0.000 N 
ATOM     25  C   UNL     1      17.604  -0.338  51.645  0.00  0.00    +0.000 C 
ATOM     26  C   UNL     1      17.681  -1.767  53.634  0.00  0.00    +0.000 C 
ENDBRANCH  19  24
ENDBRANCH   1  14
TORSDOF 3
ENDMDL
MODEL 9
REMARK VINA RESULT:    -7.537      3.352      8.418
REMARK INTER + INTRA:          -9.321
REMARK INTER:                  -8.804
REMARK INTRA:                  -0.517
REMARK UNBOUND:                -0.461
REMARK  Name = 
REMARK  6 active torsions:
REMARK  status: ('A' for Active; 'I' for Inactive)
REMARK    1  A    between atoms: C_1  and  C_2
REMARK    2  A    between atoms: N_5  and  S_6
REMARK    3  A    between atoms: S_6  and  C_9
REMARK    4  A    between atoms: C_14  and  N_15
REMARK    5  A    between atoms: N_15  and  C_16
REMARK    6  A    between atoms: N_15  and  C_17
REMARK                            x       y       z     vdW  Elec       q    Type
REMARK                         _______ _______ _______ _____ _____    ______ ____
ROOT
ATOM      1  S   UNL     1      21.578   1.118  52.277  0.00  0.00    +0.000 S 
ATOM      2  O   UNL     1      21.175   2.491  52.493  0.00  0.00    +0.000 OA
ATOM      3  O   UNL     1      22.206   0.745  51.027  0.00  0.00    +0.000 OA
ENDROOT
BRANCH   1   8
ATOM      4  C   UNL     1      26.914  -1.618  52.689  0.00  0.00    +0.000 C 
ATOM      5  C   UNL     1      26.132  -0.356  52.903  0.00  0.00    +0.000 A 
ATOM      6  C   UNL     1      24.730  -0.404  52.955  0.00  0.00    +0.000 A 
ATOM      7  C   UNL     1      24.028   0.753  53.245  0.00  0.00    +0.000 A 
ATOM      8  N   UNL     1      22.641   0.724  53.531  0.00  0.00    +0.000 N 
ATOM      9  N   UNL     1      24.643   1.929  53.456  0.00  0.00    +0.000 NA
ATOM     10  N   UNL     1      26.016   1.992  53.407  0.00  0.00    +0.000 NA
ATOM     11  C   UNL     1      26.732   0.872  53.159  0.00  0.00    +0.000 A 
ATOM     12 CL   UNL     1      28.431   1.092  53.270  0.00  0.00    +0.000 Cl
ATOM     13  H   UNL     1      22.310   0.482  54.426  0.00  0.00    +0.000 HD
ENDBRANCH   1   8
BRANCH   1  14
ATOM     14  C   UNL     1      20.152   0.070  52.531  0.00  0.00    +0.000 A 
ATOM     15  C   UNL     1      20.299  -0.893  53.535  0.00  0.00    +0.000 A 
ATOM     16  C   UNL     1      19.211  -1.638  53.929  0.00  0.00    +0.000 A 
ATOM     17  C   UNL     1      17.994  -1.463  53.276  0.00  0.00    +0.000 A 
ATOM     18  C   UNL     1      17.834  -0.674  52.118  0.00  0.00    +0.000 A 
ATOM     19  C   UNL     1      16.617  -0.689  51.333  0.00  0.00    +0.000 A 
ATOM     20  C   UNL     1      16.586   0.142  50.199  0.00  0.00    +0.000 A 
ATOM     21  C   UNL     1      17.633   1.002  49.877  0.00  0.00    +0.000 A 
ATOM     22  C   UNL     1      18.784   1.023  50.659  0.00  0.00    +0.000 A 
ATOM     23  C   UNL     1      18.947   0.160  51.761  0.00  0.00    +0.000 A 
BRANCH  19  24
ATOM     24  N   UNL     1      15.490  -1.474  51.650  0.00  0.00    +0.000 N 
ATOM     25  C   UNL     1      14.441  -0.950  52.530  0.00  0.00    +0.000 C 
ATOM     26  C   UNL     1      14.995  -2.466  50.686  0.00  0.00    +0.000 C 
ENDBRANCH  19  24
ENDBRANCH   1  14
TORSDOF 3
ENDMDL
