MODEL 1
REMARK VINA RESULT:    -8.168      0.000      0.000
REMARK INTER + INTRA:          -9.651
REMARK INTER:                  -9.362
REMARK INTRA:                  -0.289
REMARK UNBOUND:                -0.289
REMARK  Name = 
REMARK  8 active torsions:
REMARK  status: ('A' for Active; 'I' for Inactive)
REMARK    1  A    between atoms: C_1  and  C_2
REMARK    2  A    between atoms: C_2  and  C_3
REMARK    3  A    between atoms: C_3  and  C_4
REMARK    4  A    between atoms: C_16  and  C_17
REMARK    5  A    between atoms: C_16  and  C_18
REMARK    6  A    between atoms: C_22  and  C_23
REMARK    7  A    between atoms: C_22  and  C_24
REMARK    8  A    between atoms: C_26  and  O_27
REMARK                            x       y       z     vdW  Elec       q    Type
REMARK                         _______ _______ _______ _____ _____    ______ ____
ROOT
ATOM      1  C   UNL     1      26.083   3.067  50.988  0.00  0.00    +0.000 A 
ATOM      2  C   UNL     1      27.218   2.507  51.464  0.00  0.00    +0.000 A 
ATOM      3  C   UNL     1      27.404   2.076  52.854  0.00  0.00    +0.000 A 
ATOM      4  O   UNL     1      28.452   1.590  53.259  0.00  0.00    +0.000 OA
ATOM      5  O   UNL     1      26.332   2.285  53.670  0.00  0.00    +0.000 OA
ATOM      6  C   UNL     1      25.101   2.317  53.016  0.00  0.00    +0.000 A 
ATOM      7  C   UNL     1      24.179   1.379  53.418  0.00  0.00    +0.000 A 
ATOM      8  C   UNL     1      22.857   1.552  53.080  0.00  0.00    +0.000 A 
ATOM      9  C   UNL     1      22.509   2.635  52.243  0.00  0.00    +0.000 A 
ATOM     10  C   UNL     1      23.525   3.324  51.541  0.00  0.00    +0.000 A 
ATOM     11  C   UNL     1      24.873   3.055  51.863  0.00  0.00    +0.000 A 
ATOM     12  O   UNL     1      23.232   4.265  50.579  0.00  0.00    +0.000 OA
ATOM     13  C   UNL     1      21.848   4.477  50.183  0.00  0.00    +0.000 C 
ATOM     14  C   UNL     1      21.604   5.992  50.088  0.00  0.00    +0.000 C 
ATOM     15  C   UNL     1      21.654   3.854  48.797  0.00  0.00    +0.000 C 
ATOM     16  C   UNL     1      20.805   3.893  51.094  0.00  0.00    +0.000 C 
ATOM     17  C   UNL     1      21.106   3.003  52.051  0.00  0.00    +0.000 C 
ATOM     18  O   UNL     1      21.880   0.700  53.517  0.00  0.00    +0.000 OA
ATOM     19  C   UNL     1      22.290  -0.649  53.841  0.00  0.00    +0.000 C 
ATOM     20  C   UNL     1      22.250  -1.505  52.562  0.00  0.00    +0.000 C 
ATOM     21  C   UNL     1      21.238  -1.183  54.823  0.00  0.00    +0.000 C 
ATOM     22  C   UNL     1      23.636  -0.730  54.572  0.00  0.00    +0.000 C 
ATOM     23  C   UNL     1      24.703   0.060  53.882  0.00  0.00    +0.000 C 
ENDROOT
BRANCH  23  24
ATOM     24  O   UNL     1      25.154  -0.617  52.698  0.00  0.00    +0.000 OA
ATOM     25  H   UNL     1      24.488  -0.523  51.998  0.00  0.00    +0.000 HD
ENDBRANCH  23  24
BRANCH   1  26
ATOM     26  C   UNL     1      26.013   3.326  49.514  0.00  0.00    +0.000 C 
BRANCH  26  28
ATOM     27  C   UNL     1      27.787   4.907  48.699  0.00  0.00    +0.000 C 
ATOM     28  C   UNL     1      26.344   4.771  49.167  0.00  0.00    +0.000 C 
ENDBRANCH  26  28
ENDBRANCH   1  26
TORSDOF 3
ENDMDL
MODEL 2
REMARK VINA RESULT:    -8.084      1.996      6.665
REMARK INTER + INTRA:          -9.555
REMARK INTER:                  -9.208
REMARK INTRA:                  -0.347
REMARK UNBOUND:                -0.289
REMARK  Name = 
REMARK  8 active torsions:
REMARK  status: ('A' for Active; 'I' for Inactive)
REMARK    1  A    between atoms: C_1  and  C_2
REMARK    2  A    between atoms: C_2  and  C_3
REMARK    3  A    between atoms: C_3  and  C_4
REMARK    4  A    between atoms: C_16  and  C_17
REMARK    5  A    between atoms: C_16  and  C_18
REMARK    6  A    between atoms: C_22  and  C_23
REMARK    7  A    between atoms: C_22  and  C_24
REMARK    8  A    between atoms: C_26  and  O_27
REMARK                            x       y       z     vdW  Elec       q    Type
REMARK                         _______ _______ _______ _____ _____    ______ ____
ROOT
ATOM      1  C   UNL     1      21.401  -0.061  52.933  0.00  0.00    +0.000 A 
ATOM      2  C   UNL     1      20.067  -0.227  52.783  0.00  0.00    +0.000 A 
ATOM      3  C   UNL     1      19.141   0.846  52.404  0.00  0.00    +0.000 A 
ATOM      4  O   UNL     1      17.935   0.667  52.295  0.00  0.00    +0.000 OA
ATOM      5  O   UNL     1      19.720   2.065  52.211  0.00  0.00    +0.000 OA
ATOM      6  C   UNL     1      21.063   2.019  51.837  0.00  0.00    +0.000 A 
ATOM      7  C   UNL     1      21.374   2.598  50.630  0.00  0.00    +0.000 A 
ATOM      8  C   UNL     1      22.687   2.897  50.349  0.00  0.00    +0.000 A 
ATOM      9  C   UNL     1      23.682   2.502  51.270  0.00  0.00    +0.000 A 
ATOM     10  C   UNL     1      23.359   1.571  52.284  0.00  0.00    +0.000 A 
ATOM     11  C   UNL     1      22.004   1.230  52.484  0.00  0.00    +0.000 A 
ATOM     12  O   UNL     1      24.325   1.016  53.095  0.00  0.00    +0.000 OA
ATOM     13  C   UNL     1      25.727   1.297  52.831  0.00  0.00    +0.000 C 
ATOM     14  C   UNL     1      26.417   1.592  54.172  0.00  0.00    +0.000 C 
ATOM     15  C   UNL     1      26.353   0.039  52.218  0.00  0.00    +0.000 C 
ATOM     16  C   UNL     1      26.007   2.444  51.900  0.00  0.00    +0.000 C 
ATOM     17  C   UNL     1      25.052   2.999  51.141  0.00  0.00    +0.000 C 
ATOM     18  O   UNL     1      23.053   3.546  49.203  0.00  0.00    +0.000 OA
ATOM     19  C   UNL     1      22.167   3.412  48.067  0.00  0.00    +0.000 C 
ATOM     20  C   UNL     1      22.545   2.142  47.284  0.00  0.00    +0.000 C 
ATOM     21  C   UNL     1      22.435   4.635  47.178  0.00  0.00    +0.000 C 
ATOM     22  C   UNL     1      20.678   3.469  48.432  0.00  0.00    +0.000 C 
ATOM     23  C   UNL     1      20.336   2.545  49.558  0.00  0.00    +0.000 C 
ENDROOT
BRANCH  23  24
ATOM     24  O   UNL     1      20.312   1.180  49.109  0.00  0.00    +0.000 OA
ATOM     25  H   UNL     1      20.514   1.148  48.160  0.00  0.00    +0.000 HD
ENDBRANCH  23  24
BRANCH   1  26
ATOM     26  C   UNL     1      22.220  -1.288  53.193  0.00  0.00    +0.000 C 
BRANCH  26  28
ATOM     27  C   UNL     1      23.185  -1.434  55.508  0.00  0.00    +0.000 C 
ATOM     28  C   UNL     1      22.022  -1.824  54.604  0.00  0.00    +0.000 C 
ENDBRANCH  26  28
ENDBRANCH   1  26
TORSDOF 3
ENDMDL
MODEL 3
REMARK VINA RESULT:    -7.914      2.032      5.142
REMARK INTER + INTRA:          -9.360
REMARK INTER:                  -8.954
REMARK INTRA:                  -0.406
REMARK UNBOUND:                -0.289
REMARK  Name = 
REMARK  8 active torsions:
REMARK  status: ('A' for Active; 'I' for Inactive)
REMARK    1  A    between atoms: C_1  and  C_2
REMARK    2  A    between atoms: C_2  and  C_3
REMARK    3  A    between atoms: C_3  and  C_4
REMARK    4  A    between atoms: C_16  and  C_17
REMARK    5  A    between atoms: C_16  and  C_18
REMARK    6  A    between atoms: C_22  and  C_23
REMARK    7  A    between atoms: C_22  and  C_24
REMARK    8  A    between atoms: C_26  and  O_27
REMARK                            x       y       z     vdW  Elec       q    Type
REMARK                         _______ _______ _______ _____ _____    ______ ____
ROOT
ATOM      1  C   UNL     1      21.791   5.080  50.706  0.00  0.00    +0.000 A 
ATOM      2  C   UNL     1      20.756   4.390  51.237  0.00  0.00    +0.000 A 
ATOM      3  C   UNL     1      20.598   2.935  51.139  0.00  0.00    +0.000 A 
ATOM      4  O   UNL     1      19.639   2.343  51.613  0.00  0.00    +0.000 OA
ATOM      5  O   UNL     1      21.587   2.295  50.452  0.00  0.00    +0.000 OA
ATOM      6  C   UNL     1      22.816   2.953  50.451  0.00  0.00    +0.000 A 
ATOM      7  C   UNL     1      23.873   2.259  50.990  0.00  0.00    +0.000 A 
ATOM      8  C   UNL     1      25.156   2.681  50.726  0.00  0.00    +0.000 A 
ATOM      9  C   UNL     1      25.338   3.874  49.994  0.00  0.00    +0.000 A 
ATOM     10  C   UNL     1      24.242   4.750  49.812  0.00  0.00    +0.000 A 
ATOM     11  C   UNL     1      22.952   4.305  50.173  0.00  0.00    +0.000 A 
ATOM     12  O   UNL     1      24.399   6.005  49.265  0.00  0.00    +0.000 OA
ATOM     13  C   UNL     1      25.737   6.497  48.976  0.00  0.00    +0.000 C 
ATOM     14  C   UNL     1      25.714   7.164  47.592  0.00  0.00    +0.000 C 
ATOM     15  C   UNL     1      26.089   7.553  50.030  0.00  0.00    +0.000 C 
ATOM     16  C   UNL     1      26.834   5.468  48.981  0.00  0.00    +0.000 C 
ATOM     17  C   UNL     1      26.659   4.238  49.484  0.00  0.00    +0.000 C 
ATOM     18  O   UNL     1      26.251   1.988  51.164  0.00  0.00    +0.000 OA
ATOM     19  C   UNL     1      26.074   1.167  52.341  0.00  0.00    +0.000 C 
ATOM     20  C   UNL     1      26.310   2.030  53.594  0.00  0.00    +0.000 C 
ATOM     21  C   UNL     1      27.167   0.091  52.272  0.00  0.00    +0.000 C 
ATOM     22  C   UNL     1      24.737   0.414  52.378  0.00  0.00    +0.000 C 
ATOM     23  C   UNL     1      23.573   1.315  52.108  0.00  0.00    +0.000 C 
ENDROOT
BRANCH  23  24
ATOM     24  O   UNL     1      23.292   2.141  53.249  0.00  0.00    +0.000 OA
ATOM     25  H   UNL     1      23.197   1.584  54.037  0.00  0.00    +0.000 HD
ENDBRANCH  23  24
BRANCH   1  26
ATOM     26  C   UNL     1      21.868   6.545  51.012  0.00  0.00    +0.000 C 
BRANCH  26  28
ATOM     27  C   UNL     1      22.086   8.534  49.494  0.00  0.00    +0.000 C 
ATOM     28  C   UNL     1      21.186   7.392  49.947  0.00  0.00    +0.000 C 
ENDBRANCH  26  28
ENDBRANCH   1  26
TORSDOF 3
ENDMDL
MODEL 4
REMARK VINA RESULT:    -7.881      1.693      4.944
REMARK INTER + INTRA:          -9.322
REMARK INTER:                  -8.926
REMARK INTRA:                  -0.397
REMARK UNBOUND:                -0.289
REMARK  Name = 
REMARK  8 active torsions:
REMARK  status: ('A' for Active; 'I' for Inactive)
REMARK    1  A    between atoms: C_1  and  C_2
REMARK    2  A    between atoms: C_2  and  C_3
REMARK    3  A    between atoms: C_3  and  C_4
REMARK    4  A    between atoms: C_16  and  C_17
REMARK    5  A    between atoms: C_16  and  C_18
REMARK    6  A    between atoms: C_22  and  C_23
REMARK    7  A    between atoms: C_22  and  C_24
REMARK    8  A    between atoms: C_26  and  O_27
REMARK                            x       y       z     vdW  Elec       q    Type
REMARK                         _______ _______ _______ _____ _____    ______ ____
ROOT
ATOM      1  C   UNL     1      22.215   1.431  52.899  0.00  0.00    +0.000 A 
ATOM      2  C   UNL     1      21.822   0.456  53.750  0.00  0.00    +0.000 A 
ATOM      3  C   UNL     1      22.424  -0.881  53.805  0.00  0.00    +0.000 A 
ATOM      4  O   UNL     1      22.032  -1.749  54.574  0.00  0.00    +0.000 OA
ATOM      5  O   UNL     1      23.433  -1.095  52.913  0.00  0.00    +0.000 OA
ATOM      6  C   UNL     1      24.113   0.055  52.517  0.00  0.00    +0.000 A 
ATOM      7  C   UNL     1      25.462   0.081  52.781  0.00  0.00    +0.000 A 
ATOM      8  C   UNL     1      26.253   1.002  52.134  0.00  0.00    +0.000 A 
ATOM      9  C   UNL     1      25.635   1.956  51.298  0.00  0.00    +0.000 A 
ATOM     10  C   UNL     1      24.234   2.140  51.372  0.00  0.00    +0.000 A 
ATOM     11  C   UNL     1      23.469   1.217  52.116  0.00  0.00    +0.000 A 
ATOM     12  O   UNL     1      23.603   3.173  50.715  0.00  0.00    +0.000 OA
ATOM     13  C   UNL     1      24.399   4.175  50.023  0.00  0.00    +0.000 C 
ATOM     14  C   UNL     1      23.748   4.447  48.658  0.00  0.00    +0.000 C 
ATOM     15  C   UNL     1      24.364   5.461  50.856  0.00  0.00    +0.000 C 
ATOM     16  C   UNL     1      25.843   3.824  49.790  0.00  0.00    +0.000 C 
ATOM     17  C   UNL     1      26.439   2.795  50.408  0.00  0.00    +0.000 C 
ATOM     18  O   UNL     1      27.612   1.026  52.292  0.00  0.00    +0.000 OA
ATOM     19  C   UNL     1      28.135   0.484  53.526  0.00  0.00    +0.000 C 
ATOM     20  C   UNL     1      28.145   1.591  54.595  0.00  0.00    +0.000 C 
ATOM     21  C   UNL     1      29.584   0.076  53.227  0.00  0.00    +0.000 C 
ATOM     22  C   UNL     1      27.421  -0.792  53.995  0.00  0.00    +0.000 C 
ATOM     23  C   UNL     1      25.933  -0.637  54.003  0.00  0.00    +0.000 C 
ENDROOT
BRANCH  23  24
ATOM     24  O   UNL     1      25.510   0.168  55.114  0.00  0.00    +0.000 OA
ATOM     25  H   UNL     1      24.596  -0.058  55.348  0.00  0.00    +0.000 HD
ENDBRANCH  23  24
BRANCH   1  26
ATOM     26  C   UNL     1      21.585   2.780  53.065  0.00  0.00    +0.000 C 
BRANCH  26  28
ATOM     27  C   UNL     1      20.346   4.150  51.362  0.00  0.00    +0.000 C 
ATOM     28  C   UNL     1      20.301   2.920  52.259  0.00  0.00    +0.000 C 
ENDBRANCH  26  28
ENDBRANCH   1  26
TORSDOF 3
ENDMDL
MODEL 5
REMARK VINA RESULT:    -7.743      3.155      6.454
REMARK INTER + INTRA:          -9.163
REMARK INTER:                  -8.793
REMARK INTRA:                  -0.370
REMARK UNBOUND:                -0.289
REMARK  Name = 
REMARK  8 active torsions:
REMARK  status: ('A' for Active; 'I' for Inactive)
REMARK    1  A    between atoms: C_1  and  C_2
REMARK    2  A    between atoms: C_2  and  C_3
REMARK    3  A    between atoms: C_3  and  C_4
REMARK    4  A    between atoms: C_16  and  C_17
REMARK    5  A    between atoms: C_16  and  C_18
REMARK    6  A    between atoms: C_22  and  C_23
REMARK    7  A    between atoms: C_22  and  C_24
REMARK    8  A    between atoms: C_26  and  O_27
REMARK                            x       y       z     vdW  Elec       q    Type
REMARK                         _______ _______ _______ _____ _____    ______ ____
ROOT
ATOM      1  C   UNL     1      22.695   1.803  50.543  0.00  0.00    +0.000 A 
ATOM      2  C   UNL     1      22.957   2.536  49.437  0.00  0.00    +0.000 A 
ATOM      3  C   UNL     1      22.202   2.434  48.183  0.00  0.00    +0.000 A 
ATOM      4  O   UNL     1      22.477   3.098  47.193  0.00  0.00    +0.000 OA
ATOM      5  O   UNL     1      21.189   1.521  48.194  0.00  0.00    +0.000 OA
ATOM      6  C   UNL     1      20.655   1.259  49.455  0.00  0.00    +0.000 A 
ATOM      7  C   UNL     1      19.315   1.521  49.610  0.00  0.00    +0.000 A 
ATOM      8  C   UNL     1      18.647   0.984  50.686  0.00  0.00    +0.000 A 
ATOM      9  C   UNL     1      19.386   0.265  51.650  0.00  0.00    +0.000 A 
ATOM     10  C   UNL     1      20.797   0.363  51.657  0.00  0.00    +0.000 A 
ATOM     11  C   UNL     1      21.437   0.997  50.571  0.00  0.00    +0.000 A 
ATOM     12  O   UNL     1      21.557  -0.168  52.677  0.00  0.00    +0.000 OA
ATOM     13  C   UNL     1      20.894  -0.740  53.839  0.00  0.00    +0.000 C 
ATOM     14  C   UNL     1      21.595  -2.063  54.187  0.00  0.00    +0.000 C 
ATOM     15  C   UNL     1      21.066   0.236  55.008  0.00  0.00    +0.000 C 
ATOM     16  C   UNL     1      19.423  -1.017  53.691  0.00  0.00    +0.000 C 
ATOM     17  C   UNL     1      18.701  -0.523  52.675  0.00  0.00    +0.000 C 
ATOM     18  O   UNL     1      17.298   1.139  50.853  0.00  0.00    +0.000 OA
ATOM     19  C   UNL     1      16.696   2.301  50.237  0.00  0.00    +0.000 C 
ATOM     20  C   UNL     1      16.798   3.492  51.208  0.00  0.00    +0.000 C 
ATOM     21  C   UNL     1      15.214   1.953  50.041  0.00  0.00    +0.000 C 
ATOM     22  C   UNL     1      17.247   2.620  48.841  0.00  0.00    +0.000 C 
ATOM     23  C   UNL     1      18.743   2.650  48.817  0.00  0.00    +0.000 C 
ENDROOT
BRANCH  23  24
ATOM     24  O   UNL     1      19.240   3.849  49.433  0.00  0.00    +0.000 OA
ATOM     25  H   UNL     1      19.365   4.533  48.757  0.00  0.00    +0.000 HD
ENDBRANCH  23  24
BRANCH   1  26
ATOM     26  C   UNL     1      23.476   2.126  51.781  0.00  0.00    +0.000 C 
BRANCH  26  28
ATOM     27  C   UNL     1      24.725   0.464  53.190  0.00  0.00    +0.000 C 
ATOM     28  C   UNL     1      24.735   1.280  51.904  0.00  0.00    +0.000 C 
ENDBRANCH  26  28
ENDBRANCH   1  26
TORSDOF 3
ENDMDL
MODEL 6
REMARK VINA RESULT:    -7.666      1.948      5.541
REMARK INTER + INTRA:          -9.076
REMARK INTER:                  -8.763
REMARK INTRA:                  -0.313
REMARK UNBOUND:                -0.289
REMARK  Name = 
REMARK  8 active torsions:
REMARK  status: ('A' for Active; 'I' for Inactive)
REMARK    1  A    between atoms: C_1  and  C_2
REMARK    2  A    between atoms: C_2  and  C_3
REMARK    3  A    between atoms: C_3  and  C_4
REMARK    4  A    between atoms: C_16  and  C_17
REMARK    5  A    between atoms: C_16  and  C_18
REMARK    6  A    between atoms: C_22  and  C_23
REMARK    7  A    between atoms: C_22  and  C_24
REMARK    8  A    between atoms: C_26  and  O_27
REMARK                            x       y       z     vdW  Elec       q    Type
REMARK                         _______ _______ _______ _____ _____    ______ ____
ROOT
ATOM      1  C   UNL     1      22.581   0.062  53.417  0.00  0.00    +0.000 A 
ATOM      2  C   UNL     1      23.765  -0.156  54.035  0.00  0.00    +0.000 A 
ATOM      3  C   UNL     1      25.069  -0.088  53.366  0.00  0.00    +0.000 A 
ATOM      4  O   UNL     1      26.121  -0.310  53.949  0.00  0.00    +0.000 OA
ATOM      5  O   UNL     1      25.018   0.213  52.037  0.00  0.00    +0.000 OA
ATOM      6  C   UNL     1      23.897   0.945  51.648  0.00  0.00    +0.000 A 
ATOM      7  C   UNL     1      24.144   2.169  51.073  0.00  0.00    +0.000 A 
ATOM      8  C   UNL     1      23.142   2.790  50.365  0.00  0.00    +0.000 A 
ATOM      9  C   UNL     1      21.862   2.196  50.340  0.00  0.00    +0.000 A 
ATOM     10  C   UNL     1      21.557   1.166  51.262  0.00  0.00    +0.000 A 
ATOM     11  C   UNL     1      22.605   0.613  52.029  0.00  0.00    +0.000 A 
ATOM     12  O   UNL     1      20.278   0.675  51.405  0.00  0.00    +0.000 OA
ATOM     13  C   UNL     1      19.185   1.306  50.682  0.00  0.00    +0.000 C 
ATOM     14  C   UNL     1      18.301   0.198  50.088  0.00  0.00    +0.000 C 
ATOM     15  C   UNL     1      18.358   2.114  51.688  0.00  0.00    +0.000 C 
ATOM     16  C   UNL     1      19.579   2.235  49.568  0.00  0.00    +0.000 C 
ATOM     17  C   UNL     1      20.836   2.680  49.417  0.00  0.00    +0.000 C 
ATOM     18  O   UNL     1      23.347   3.968  49.701  0.00  0.00    +0.000 OA
ATOM     19  C   UNL     1      24.407   4.819  50.197  0.00  0.00    +0.000 C 
ATOM     20  C   UNL     1      23.845   5.722  51.310  0.00  0.00    +0.000 C 
ATOM     21  C   UNL     1      24.827   5.702  49.014  0.00  0.00    +0.000 C 
ATOM     22  C   UNL     1      25.666   4.055  50.627  0.00  0.00    +0.000 C 
ATOM     23  C   UNL     1      25.351   2.913  51.541  0.00  0.00    +0.000 C 
ENDROOT
BRANCH  23  24
ATOM     24  O   UNL     1      25.027   3.388  52.858  0.00  0.00    +0.000 OA
ATOM     25  H   UNL     1      25.636   4.103  53.103  0.00  0.00    +0.000 HD
ENDBRANCH  23  24
BRANCH   1  26
ATOM     26  C   UNL     1      21.354   0.084  54.276  0.00  0.00    +0.000 C 
BRANCH  26  28
ATOM     27  C   UNL     1      19.366  -1.327  53.668  0.00  0.00    +0.000 C 
ATOM     28  C   UNL     1      20.706  -1.289  54.390  0.00  0.00    +0.000 C 
ENDBRANCH  26  28
ENDBRANCH   1  26
TORSDOF 3
ENDMDL
MODEL 7
REMARK VINA RESULT:    -7.647      1.870      5.195
REMARK INTER + INTRA:          -9.053
REMARK INTER:                  -8.675
REMARK INTRA:                  -0.378
REMARK UNBOUND:                -0.289
REMARK  Name = 
REMARK  8 active torsions:
REMARK  status: ('A' for Active; 'I' for Inactive)
REMARK    1  A    between atoms: C_1  and  C_2
REMARK    2  A    between atoms: C_2  and  C_3
REMARK    3  A    between atoms: C_3  and  C_4
REMARK    4  A    between atoms: C_16  and  C_17
REMARK    5  A    between atoms: C_16  and  C_18
REMARK    6  A    between atoms: C_22  and  C_23
REMARK    7  A    between atoms: C_22  and  C_24
REMARK    8  A    between atoms: C_26  and  O_27
REMARK                            x       y       z     vdW  Elec       q    Type
REMARK                         _______ _______ _______ _____ _____    ______ ____
ROOT
ATOM      1  C   UNL     1      22.837   2.049  50.600  0.00  0.00    +0.000 A 
ATOM      2  C   UNL     1      23.456   2.983  49.842  0.00  0.00    +0.000 A 
ATOM      3  C   UNL     1      24.436   3.946  50.359  0.00  0.00    +0.000 A 
ATOM      4  O   UNL     1      24.964   4.793  49.651  0.00  0.00    +0.000 OA
ATOM      5  O   UNL     1      24.691   3.847  51.694  0.00  0.00    +0.000 OA
ATOM      6  C   UNL     1      24.475   2.580  52.236  0.00  0.00    +0.000 A 
ATOM      7  C   UNL     1      25.564   1.980  52.822  0.00  0.00    +0.000 A 
ATOM      8  C   UNL     1      25.367   0.909  53.662  0.00  0.00    +0.000 A 
ATOM      9  C   UNL     1      24.060   0.399  53.813  0.00  0.00    +0.000 A 
ATOM     10  C   UNL     1      23.054   0.787  52.896  0.00  0.00    +0.000 A 
ATOM     11  C   UNL     1      23.328   1.837  51.995  0.00  0.00    +0.000 A 
ATOM     12  O   UNL     1      21.813   0.188  52.885  0.00  0.00    +0.000 OA
ATOM     13  C   UNL     1      21.561  -0.953  53.751  0.00  0.00    +0.000 C 
ATOM     14  C   UNL     1      20.182  -0.764  54.404  0.00  0.00    +0.000 C 
ATOM     15  C   UNL     1      21.528  -2.211  52.876  0.00  0.00    +0.000 C 
ATOM     16  C   UNL     1      22.567  -1.186  54.844  0.00  0.00    +0.000 C 
ATOM     17  C   UNL     1      23.758  -0.572  54.864  0.00  0.00    +0.000 C 
ATOM     18  O   UNL     1      26.400   0.320  54.338  0.00  0.00    +0.000 OA
ATOM     19  C   UNL     1      27.717   0.444  53.754  0.00  0.00    +0.000 C 
ATOM     20  C   UNL     1      27.928  -0.700  52.745  0.00  0.00    +0.000 C 
ATOM     21  C   UNL     1      28.710   0.269  54.911  0.00  0.00    +0.000 C 
ATOM     22  C   UNL     1      28.002   1.828  53.155  0.00  0.00    +0.000 C 
ATOM     23  C   UNL     1      26.907   2.286  52.244  0.00  0.00    +0.000 C 
ENDROOT
BRANCH  23  24
ATOM     24  O   UNL     1      26.959   1.586  50.991  0.00  0.00    +0.000 OA
ATOM     25  H   UNL     1      27.446   0.754  51.105  0.00  0.00    +0.000 HD
ENDBRANCH  23  24
BRANCH   1  26
ATOM     26  C   UNL     1      21.966   1.058  49.890  0.00  0.00    +0.000 C 
BRANCH  26  28
ATOM     27  C   UNL     1      19.528   0.802  50.437  0.00  0.00    +0.000 C 
ATOM     28  C   UNL     1      20.562   1.595  49.649  0.00  0.00    +0.000 C 
ENDBRANCH  26  28
ENDBRANCH   1  26
TORSDOF 3
ENDMDL
MODEL 8
REMARK VINA RESULT:    -7.506      1.891      4.059
REMARK INTER + INTRA:          -8.892
REMARK INTER:                  -8.521
REMARK INTRA:                  -0.371
REMARK UNBOUND:                -0.289
REMARK  Name = 
REMARK  8 active torsions:
REMARK  status: ('A' for Active; 'I' for Inactive)
REMARK    1  A    between atoms: C_1  and  C_2
REMARK    2  A    between atoms: C_2  and  C_3
REMARK    3  A    between atoms: C_3  and  C_4
REMARK    4  A    between atoms: C_16  and  C_17
REMARK    5  A    between atoms: C_16  and  C_18
REMARK    6  A    between atoms: C_22  and  C_23
REMARK    7  A    between atoms: C_22  and  C_24
REMARK    8  A    between atoms: C_26  and  O_27
REMARK                            x       y       z     vdW  Elec       q    Type
REMARK                         _______ _______ _______ _____ _____    ______ ____
ROOT
ATOM      1  C   UNL     1      23.387   3.655  49.276  0.00  0.00    +0.000 A 
ATOM      2  C   UNL     1      24.451   4.323  48.775  0.00  0.00    +0.000 A 
ATOM      3  C   UNL     1      25.516   4.911  49.595  0.00  0.00    +0.000 A 
ATOM      4  O   UNL     1      26.456   5.527  49.111  0.00  0.00    +0.000 OA
ATOM      5  O   UNL     1      25.364   4.747  50.940  0.00  0.00    +0.000 OA
ATOM      6  C   UNL     1      24.616   3.629  51.309  0.00  0.00    +0.000 A 
ATOM      7  C   UNL     1      25.258   2.707  52.101  0.00  0.00    +0.000 A 
ATOM      8  C   UNL     1      24.512   1.771  52.778  0.00  0.00    +0.000 A 
ATOM      9  C   UNL     1      23.119   1.725  52.554  0.00  0.00    +0.000 A 
ATOM     10  C   UNL     1      22.571   2.416  51.447  0.00  0.00    +0.000 A 
ATOM     11  C   UNL     1      23.397   3.307  50.729  0.00  0.00    +0.000 A 
ATOM     12  O   UNL     1      21.254   2.263  51.076  0.00  0.00    +0.000 OA
ATOM     13  C   UNL     1      20.428   1.279  51.759  0.00  0.00    +0.000 C 
ATOM     14  C   UNL     1      19.063   1.922  52.057  0.00  0.00    +0.000 C 
ATOM     15  C   UNL     1      20.222   0.095  50.809  0.00  0.00    +0.000 C 
ATOM     16  C   UNL     1      20.978   0.736  53.049  0.00  0.00    +0.000 C 
ATOM     17  C   UNL     1      22.254   0.921  53.417  0.00  0.00    +0.000 C 
ATOM     18  O   UNL     1      25.082   0.879  53.644  0.00  0.00    +0.000 OA
ATOM     19  C   UNL     1      26.474   0.554  53.422  0.00  0.00    +0.000 C 
ATOM     20  C   UNL     1      26.562  -0.605  52.413  0.00  0.00    +0.000 C 
ATOM     21  C   UNL     1      27.014   0.070  54.775  0.00  0.00    +0.000 C 
ATOM     22  C   UNL     1      27.337   1.759  53.025  0.00  0.00    +0.000 C 
ATOM     23  C   UNL     1      26.730   2.545  51.905  0.00  0.00    +0.000 C 
ENDROOT
BRANCH  23  24
ATOM     24  O   UNL     1      26.882   1.854  50.655  0.00  0.00    +0.000 OA
ATOM     25  H   UNL     1      27.300   0.992  50.811  0.00  0.00    +0.000 HD
ENDBRANCH  23  24
BRANCH   1  26
ATOM     26  C   UNL     1      22.463   3.002  48.294  0.00  0.00    +0.000 C 
BRANCH  26  28
ATOM     27  C   UNL     1      20.192   4.076  48.346  0.00  0.00    +0.000 C 
ATOM     28  C   UNL     1      21.532   4.005  47.626  0.00  0.00    +0.000 C 
ENDBRANCH  26  28
ENDBRANCH   1  26
TORSDOF 3
ENDMDL
MODEL 9
REMARK VINA RESULT:    -7.288      2.084      5.556
REMARK INTER + INTRA:          -8.643
REMARK INTER:                  -8.275
REMARK INTRA:                  -0.368
REMARK UNBOUND:                -0.289
REMARK  Name = 
REMARK  8 active torsions:
REMARK  status: ('A' for Active; 'I' for Inactive)
REMARK    1  A    between atoms: C_1  and  C_2
REMARK    2  A    between atoms: C_2  and  C_3
REMARK    3  A    between atoms: C_3  and  C_4
REMARK    4  A    between atoms: C_16  and  C_17
REMARK    5  A    between atoms: C_16  and  C_18
REMARK    6  A    between atoms: C_22  and  C_23
REMARK    7  A    between atoms: C_22  and  C_24
REMARK    8  A    between atoms: C_26  and  O_27
REMARK                            x       y       z     vdW  Elec       q    Type
REMARK                         _______ _______ _______ _____ _____    ______ ____
ROOT
ATOM      1  C   UNL     1      24.602   2.549  51.868  0.00  0.00    +0.000 A 
ATOM      2  C   UNL     1      25.365   3.431  51.183  0.00  0.00    +0.000 A 
ATOM      3  C   UNL     1      25.274   3.649  49.735  0.00  0.00    +0.000 A 
ATOM      4  O   UNL     1      25.993   4.442  49.142  0.00  0.00    +0.000 OA
ATOM      5  O   UNL     1      24.349   2.880  49.095  0.00  0.00    +0.000 OA
ATOM      6  C   UNL     1      23.285   2.462  49.893  0.00  0.00    +0.000 A 
ATOM      7  C   UNL     1      22.032   2.854  49.485  0.00  0.00    +0.000 A 
ATOM      8  C   UNL     1      20.929   2.217  50.003  0.00  0.00    +0.000 A 
ATOM      9  C   UNL     1      21.119   1.252  51.016  0.00  0.00    +0.000 A 
ATOM     10  C   UNL     1      22.368   1.175  51.675  0.00  0.00    +0.000 A 
ATOM     11  C   UNL     1      23.455   1.910  51.155  0.00  0.00    +0.000 A 
ATOM     12  O   UNL     1      22.555   0.380  52.785  0.00  0.00    +0.000 OA
ATOM     13  C   UNL     1      21.416  -0.307  53.373  0.00  0.00    +0.000 C 
ATOM     14  C   UNL     1      21.842  -1.746  53.704  0.00  0.00    +0.000 C 
ATOM     15  C   UNL     1      21.052   0.415  54.676  0.00  0.00    +0.000 C 
ATOM     16  C   UNL     1      20.175  -0.370  52.527  0.00  0.00    +0.000 C 
ATOM     17  C   UNL     1      20.018   0.382  51.429  0.00  0.00    +0.000 C 
ATOM     18  O   UNL     1      19.661   2.504  49.579  0.00  0.00    +0.000 OA
ATOM     19  C   UNL     1      19.441   3.822  49.026  0.00  0.00    +0.000 C 
ATOM     20  C   UNL     1      19.112   4.797  50.171  0.00  0.00    +0.000 C 
ATOM     21  C   UNL     1      18.211   3.698  48.117  0.00  0.00    +0.000 C 
ATOM     22  C   UNL     1      20.584   4.317  48.130  0.00  0.00    +0.000 C 
ATOM     23  C   UNL     1      21.922   4.168  48.784  0.00  0.00    +0.000 C 
ENDROOT
BRANCH  23  24
ATOM     24  O   UNL     1      22.107   5.167  49.800  0.00  0.00    +0.000 OA
ATOM     25  H   UNL     1      22.634   5.899  49.442  0.00  0.00    +0.000 HD
ENDBRANCH  23  24
BRANCH   1  26
ATOM     26  C   UNL     1      24.729   2.547  53.361  0.00  0.00    +0.000 C 
BRANCH  26  28
ATOM     27  C   UNL     1      25.853   0.419  54.084  0.00  0.00    +0.000 C 
ATOM     28  C   UNL     1      26.031   1.910  53.827  0.00  0.00    +0.000 C 
ENDBRANCH  26  28
ENDBRANCH   1  26
TORSDOF 3
ENDMDL
