MODEL 1
REMARK VINA RESULT:    -7.712      0.000      0.000
REMARK INTER + INTRA:         -10.032
REMARK INTER:                  -9.515
REMARK INTRA:                  -0.517
REMARK UNBOUND:                -0.517
REMARK  Name = 
REMARK  7 active torsions:
REMARK  status: ('A' for Active; 'I' for Inactive)
REMARK    1  A    between atoms: C_1  and  O_2
REMARK    2  A    between atoms: O_2  and  C_3
REMARK    3  A    between atoms: N_10  and  S_11
REMARK    4  A    between atoms: S_11  and  C_14
REMARK    5  A    between atoms: C_19  and  N_20
REMARK    6  A    between atoms: N_20  and  C_21
REMARK    7  A    between atoms: N_20  and  C_22
REMARK                            x       y       z     vdW  Elec       q    Type
REMARK                         _______ _______ _______ _____ _____    ______ ____
ROOT
ATOM      1  S   UNL     1      21.602   2.935  51.964  0.00  0.00    +0.000 S 
ATOM      2  O   UNL     1      21.438   2.791  50.533  0.00  0.00    +0.000 OA
ATOM      3  O   UNL     1      22.164   4.155  52.511  0.00  0.00    +0.000 OA
ENDROOT
BRANCH   1   4
ATOM      4  C   UNL     1      22.619   1.550  52.526  0.00  0.00    +0.000 A 
ATOM      5  C   UNL     1      21.998   0.650  53.399  0.00  0.00    +0.000 A 
ATOM      6  C   UNL     1      22.742  -0.354  53.992  0.00  0.00    +0.000 A 
ATOM      7  C   UNL     1      24.109  -0.452  53.728  0.00  0.00    +0.000 A 
ATOM      8  C   UNL     1      24.797   0.404  52.831  0.00  0.00    +0.000 A 
ATOM      9  C   UNL     1      26.221   0.316  52.589  0.00  0.00    +0.000 A 
ATOM     10  C   UNL     1      26.788   1.287  51.739  0.00  0.00    +0.000 A 
ATOM     11  C   UNL     1      26.034   2.271  51.122  0.00  0.00    +0.000 A 
ATOM     12  C   UNL     1      24.673   2.341  51.353  0.00  0.00    +0.000 A 
ATOM     13  C   UNL     1      24.012   1.444  52.217  0.00  0.00    +0.000 A 
BRANCH   9  14
ATOM     14  N   UNL     1      27.074  -0.627  53.185  0.00  0.00    +0.000 N 
ATOM     15  C   UNL     1      27.234  -1.985  52.685  0.00  0.00    +0.000 C 
ATOM     16  C   UNL     1      28.108  -0.189  54.124  0.00  0.00    +0.000 C 
ENDBRANCH   9  14
ENDBRANCH   1   4
BRANCH   1  24
ATOM     17  C   UNL     1      18.625   1.388  51.123  0.00  0.00    +0.000 A 
ATOM     18  N   UNL     1      17.686   1.371  50.144  0.00  0.00    +0.000 NA
ATOM     19  C   UNL     1      17.199   2.581  49.787  0.00  0.00    +0.000 A 
ATOM     20 BR   UNL     1      15.921   2.661  48.396  0.00  0.00    +0.000 Br
ATOM     21  C   UNL     1      17.615   3.751  50.410  0.00  0.00    +0.000 A 
ATOM     22  N   UNL     1      18.536   3.792  51.396  0.00  0.00    +0.000 NA
ATOM     23  C   UNL     1      19.039   2.586  51.727  0.00  0.00    +0.000 A 
ATOM     24  N   UNL     1      20.084   2.677  52.674  0.00  0.00    +0.000 N 
ATOM     25  H   UNL     1      19.944   2.599  53.647  0.00  0.00    +0.000 HD
BRANCH  17  27
ATOM     26  C   UNL     1      18.208  -0.568  52.349  0.00  0.00    +0.000 C 
ATOM     27  O   UNL     1      19.142   0.197  51.595  0.00  0.00    +0.000 OA
ENDBRANCH  17  27
ENDBRANCH   1  24
TORSDOF 4
ENDMDL
MODEL 2
REMARK VINA RESULT:    -7.586      1.367      2.559
REMARK INTER + INTRA:          -9.877
REMARK INTER:                  -9.664
REMARK INTRA:                  -0.214
REMARK UNBOUND:                -0.517
REMARK  Name = 
REMARK  7 active torsions:
REMARK  status: ('A' for Active; 'I' for Inactive)
REMARK    1  A    between atoms: C_1  and  O_2
REMARK    2  A    between atoms: O_2  and  C_3
REMARK    3  A    between atoms: N_10  and  S_11
REMARK    4  A    between atoms: S_11  and  C_14
REMARK    5  A    between atoms: C_19  and  N_20
REMARK    6  A    between atoms: N_20  and  C_21
REMARK    7  A    between atoms: N_20  and  C_22
REMARK                            x       y       z     vdW  Elec       q    Type
REMARK                         _______ _______ _______ _____ _____    ______ ____
ROOT
ATOM      1  S   UNL     1      22.459   2.491  50.742  0.00  0.00    +0.000 S 
ATOM      2  O   UNL     1      22.083   1.299  50.014  0.00  0.00    +0.000 OA
ATOM      3  O   UNL     1      22.345   3.793  50.113  0.00  0.00    +0.000 OA
ENDROOT
BRANCH   1   4
ATOM      4  C   UNL     1      24.173   2.275  51.271  0.00  0.00    +0.000 A 
ATOM      5  C   UNL     1      25.127   3.036  50.584  0.00  0.00    +0.000 A 
ATOM      6  C   UNL     1      26.473   2.826  50.823  0.00  0.00    +0.000 A 
ATOM      7  C   UNL     1      26.872   1.845  51.734  0.00  0.00    +0.000 A 
ATOM      8  C   UNL     1      25.963   1.061  52.487  0.00  0.00    +0.000 A 
ATOM      9  C   UNL     1      26.384   0.024  53.404  0.00  0.00    +0.000 A 
ATOM     10  C   UNL     1      25.371  -0.738  54.022  0.00  0.00    +0.000 A 
ATOM     11  C   UNL     1      24.024  -0.503  53.804  0.00  0.00    +0.000 A 
ATOM     12  C   UNL     1      23.631   0.496  52.932  0.00  0.00    +0.000 A 
ATOM     13  C   UNL     1      24.563   1.290  52.233  0.00  0.00    +0.000 A 
BRANCH   9  14
ATOM     14  N   UNL     1      27.722  -0.307  53.672  0.00  0.00    +0.000 N 
ATOM     15  C   UNL     1      28.457   0.209  54.818  0.00  0.00    +0.000 C 
ATOM     16  C   UNL     1      28.337  -1.460  53.012  0.00  0.00    +0.000 C 
ENDBRANCH   9  14
ENDBRANCH   1   4
BRANCH   1  24
ATOM     17  C   UNL     1      19.497   1.139  51.911  0.00  0.00    +0.000 A 
ATOM     18  N   UNL     1      18.180   1.058  51.598  0.00  0.00    +0.000 NA
ATOM     19  C   UNL     1      17.575   2.236  51.325  0.00  0.00    +0.000 A 
ATOM     20 BR   UNL     1      15.751   2.217  50.831  0.00  0.00    +0.000 Br
ATOM     21  C   UNL     1      18.258   3.444  51.397  0.00  0.00    +0.000 A 
ATOM     22  N   UNL     1      19.565   3.552  51.721  0.00  0.00    +0.000 NA
ATOM     23  C   UNL     1      20.169   2.371  51.963  0.00  0.00    +0.000 A 
ATOM     24  N   UNL     1      21.558   2.509  52.180  0.00  0.00    +0.000 N 
ATOM     25  H   UNL     1      21.962   2.605  53.073  0.00  0.00    +0.000 HD
BRANCH  17  27
ATOM     26  C   UNL     1      19.946  -0.430  53.596  0.00  0.00    +0.000 C 
ATOM     27  O   UNL     1      20.189  -0.005  52.260  0.00  0.00    +0.000 OA
ENDBRANCH  17  27
ENDBRANCH   1  24
TORSDOF 4
ENDMDL
MODEL 3
REMARK VINA RESULT:    -7.423      2.703      3.918
REMARK INTER + INTRA:          -9.676
REMARK INTER:                  -9.384
REMARK INTRA:                  -0.292
REMARK UNBOUND:                -0.517
REMARK  Name = 
REMARK  7 active torsions:
REMARK  status: ('A' for Active; 'I' for Inactive)
REMARK    1  A    between atoms: C_1  and  O_2
REMARK    2  A    between atoms: O_2  and  C_3
REMARK    3  A    between atoms: N_10  and  S_11
REMARK    4  A    between atoms: S_11  and  C_14
REMARK    5  A    between atoms: C_19  and  N_20
REMARK    6  A    between atoms: N_20  and  C_21
REMARK    7  A    between atoms: N_20  and  C_22
REMARK                            x       y       z     vdW  Elec       q    Type
REMARK                         _______ _______ _______ _____ _____    ______ ____
ROOT
ATOM      1  S   UNL     1      22.491   2.192  50.616  0.00  0.00    +0.000 S 
ATOM      2  O   UNL     1      21.928   0.865  50.746  0.00  0.00    +0.000 OA
ATOM      3  O   UNL     1      22.475   2.866  49.332  0.00  0.00    +0.000 OA
ENDROOT
BRANCH   1   4
ATOM      4  C   UNL     1      24.207   2.099  51.177  0.00  0.00    +0.000 A 
ATOM      5  C   UNL     1      25.130   2.861  50.451  0.00  0.00    +0.000 A 
ATOM      6  C   UNL     1      26.482   2.737  50.717  0.00  0.00    +0.000 A 
ATOM      7  C   UNL     1      26.917   1.841  51.695  0.00  0.00    +0.000 A 
ATOM      8  C   UNL     1      26.039   1.062  52.489  0.00  0.00    +0.000 A 
ATOM      9  C   UNL     1      26.499   0.110  53.478  0.00  0.00    +0.000 A 
ATOM     10  C   UNL     1      25.518  -0.660  54.134  0.00  0.00    +0.000 A 
ATOM     11  C   UNL     1      24.163  -0.510  53.887  0.00  0.00    +0.000 A 
ATOM     12  C   UNL     1      23.733   0.408  52.946  0.00  0.00    +0.000 A 
ATOM     13  C   UNL     1      24.633   1.201  52.206  0.00  0.00    +0.000 A 
BRANCH   9  14
ATOM     14  N   UNL     1      27.848  -0.133  53.781  0.00  0.00    +0.000 N 
ATOM     15  C   UNL     1      28.540   0.494  54.899  0.00  0.00    +0.000 C 
ATOM     16  C   UNL     1      28.531  -1.293  53.205  0.00  0.00    +0.000 C 
ENDBRANCH   9  14
ENDBRANCH   1   4
BRANCH   1  24
ATOM     17  C   UNL     1      20.272   4.845  50.590  0.00  0.00    +0.000 A 
ATOM     18  N   UNL     1      20.112   6.079  50.050  0.00  0.00    +0.000 NA
ATOM     19  C   UNL     1      21.164   6.915  50.192  0.00  0.00    +0.000 A 
ATOM     20 BR   UNL     1      21.051   8.641  49.429  0.00  0.00    +0.000 Br
ATOM     21  C   UNL     1      22.314   6.537  50.875  0.00  0.00    +0.000 A 
ATOM     22  N   UNL     1      22.491   5.320  51.434  0.00  0.00    +0.000 NA
ATOM     23  C   UNL     1      21.449   4.482  51.263  0.00  0.00    +0.000 A 
ATOM     24  N   UNL     1      21.715   3.183  51.753  0.00  0.00    +0.000 N 
ATOM     25  H   UNL     1      21.474   2.884  52.660  0.00  0.00    +0.000 HD
BRANCH  17  27
ATOM     26  C   UNL     1      18.968   3.442  49.236  0.00  0.00    +0.000 C 
ATOM     27  O   UNL     1      19.230   3.938  50.544  0.00  0.00    +0.000 OA
ENDBRANCH  17  27
ENDBRANCH   1  24
TORSDOF 4
ENDMDL
MODEL 4
REMARK VINA RESULT:    -7.402      1.864      3.242
REMARK INTER + INTRA:          -9.650
REMARK INTER:                  -9.301
REMARK INTRA:                  -0.350
REMARK UNBOUND:                -0.517
REMARK  Name = 
REMARK  7 active torsions:
REMARK  status: ('A' for Active; 'I' for Inactive)
REMARK    1  A    between atoms: C_1  and  O_2
REMARK    2  A    between atoms: O_2  and  C_3
REMARK    3  A    between atoms: N_10  and  S_11
REMARK    4  A    between atoms: S_11  and  C_14
REMARK    5  A    between atoms: C_19  and  N_20
REMARK    6  A    between atoms: N_20  and  C_21
REMARK    7  A    between atoms: N_20  and  C_22
REMARK                            x       y       z     vdW  Elec       q    Type
REMARK                         _______ _______ _______ _____ _____    ______ ____
ROOT
ATOM      1  S   UNL     1      22.542   2.795  50.845  0.00  0.00    +0.000 S 
ATOM      2  O   UNL     1      22.587   3.860  49.868  0.00  0.00    +0.000 OA
ATOM      3  O   UNL     1      21.743   2.945  52.047  0.00  0.00    +0.000 OA
ENDROOT
BRANCH   1   4
ATOM      4  C   UNL     1      24.246   2.457  51.346  0.00  0.00    +0.000 A 
ATOM      5  C   UNL     1      25.238   3.162  50.655  0.00  0.00    +0.000 A 
ATOM      6  C   UNL     1      26.570   2.860  50.871  0.00  0.00    +0.000 A 
ATOM      7  C   UNL     1      26.915   1.842  51.761  0.00  0.00    +0.000 A 
ATOM      8  C   UNL     1      25.967   1.108  52.517  0.00  0.00    +0.000 A 
ATOM      9  C   UNL     1      26.331   0.032  53.413  0.00  0.00    +0.000 A 
ATOM     10  C   UNL     1      25.279  -0.670  54.035  0.00  0.00    +0.000 A 
ATOM     11  C   UNL     1      23.947  -0.343  53.842  0.00  0.00    +0.000 A 
ATOM     12  C   UNL     1      23.609   0.693  52.990  0.00  0.00    +0.000 A 
ATOM     13  C   UNL     1      24.582   1.433  52.287  0.00  0.00    +0.000 A 
BRANCH   9  14
ATOM     14  N   UNL     1      27.648  -0.391  53.656  0.00  0.00    +0.000 N 
ATOM     15  C   UNL     1      28.450   0.098  54.768  0.00  0.00    +0.000 C 
ATOM     16  C   UNL     1      28.157  -1.604  53.013  0.00  0.00    +0.000 C 
ENDBRANCH   9  14
ENDBRANCH   1   4
BRANCH   1  24
ATOM     17  C   UNL     1      19.591   1.491  49.598  0.00  0.00    +0.000 A 
ATOM     18  N   UNL     1      18.322   1.204  49.980  0.00  0.00    +0.000 NA
ATOM     19  C   UNL     1      18.208   0.471  51.110  0.00  0.00    +0.000 A 
ATOM     20 BR   UNL     1      16.476   0.062  51.747  0.00  0.00    +0.000 Br
ATOM     21  C   UNL     1      19.323   0.020  51.806  0.00  0.00    +0.000 A 
ATOM     22  N   UNL     1      20.596   0.281  51.437  0.00  0.00    +0.000 NA
ATOM     23  C   UNL     1      20.701   1.037  50.326  0.00  0.00    +0.000 A 
ATOM     24  N   UNL     1      22.039   1.391  50.038  0.00  0.00    +0.000 N 
ATOM     25  H   UNL     1      22.618   0.875  49.430  0.00  0.00    +0.000 HD
BRANCH  17  27
ATOM     26  C   UNL     1      19.339   3.531  48.467  0.00  0.00    +0.000 C 
ATOM     27  O   UNL     1      19.810   2.189  48.425  0.00  0.00    +0.000 OA
ENDBRANCH  17  27
ENDBRANCH   1  24
TORSDOF 4
ENDMDL
MODEL 5
REMARK VINA RESULT:    -7.362      2.045      2.683
REMARK INTER + INTRA:          -9.600
REMARK INTER:                  -9.426
REMARK INTRA:                  -0.174
REMARK UNBOUND:                -0.517
REMARK  Name = 
REMARK  7 active torsions:
REMARK  status: ('A' for Active; 'I' for Inactive)
REMARK    1  A    between atoms: C_1  and  O_2
REMARK    2  A    between atoms: O_2  and  C_3
REMARK    3  A    between atoms: N_10  and  S_11
REMARK    4  A    between atoms: S_11  and  C_14
REMARK    5  A    between atoms: C_19  and  N_20
REMARK    6  A    between atoms: N_20  and  C_21
REMARK    7  A    between atoms: N_20  and  C_22
REMARK                            x       y       z     vdW  Elec       q    Type
REMARK                         _______ _______ _______ _____ _____    ______ ____
ROOT
ATOM      1  S   UNL     1      19.883   0.808  51.903  0.00  0.00    +0.000 S 
ATOM      2  O   UNL     1      18.717   0.032  52.267  0.00  0.00    +0.000 OA
ATOM      3  O   UNL     1      20.210   1.015  50.505  0.00  0.00    +0.000 OA
ENDROOT
BRANCH   1   4
ATOM      4  C   UNL     1      21.308   0.036  52.702  0.00  0.00    +0.000 A 
ATOM      5  C   UNL     1      21.018  -0.878  53.721  0.00  0.00    +0.000 A 
ATOM      6  C   UNL     1      22.045  -1.405  54.483  0.00  0.00    +0.000 A 
ATOM      7  C   UNL     1      23.362  -1.007  54.242  0.00  0.00    +0.000 A 
ATOM      8  C   UNL     1      23.732  -0.111  53.208  0.00  0.00    +0.000 A 
ATOM      9  C   UNL     1      25.095   0.322  52.987  0.00  0.00    +0.000 A 
ATOM     10  C   UNL     1      25.308   1.283  51.979  0.00  0.00    +0.000 A 
ATOM     11  C   UNL     1      24.281   1.784  51.197  0.00  0.00    +0.000 A 
ATOM     12  C   UNL     1      22.982   1.358  51.410  0.00  0.00    +0.000 A 
ATOM     13  C   UNL     1      22.655   0.429  52.419  0.00  0.00    +0.000 A 
BRANCH   9  14
ATOM     14  N   UNL     1      26.199  -0.107  53.741  0.00  0.00    +0.000 N 
ATOM     15  C   UNL     1      27.263  -0.940  53.196  0.00  0.00    +0.000 C 
ATOM     16  C   UNL     1      26.519   0.549  55.010  0.00  0.00    +0.000 C 
ENDBRANCH   9  14
ENDBRANCH   1   4
BRANCH   1  24
ATOM     17  C   UNL     1      18.274   3.807  51.282  0.00  0.00    +0.000 A 
ATOM     18  N   UNL     1      18.143   4.752  50.319  0.00  0.00    +0.000 NA
ATOM     19  C   UNL     1      19.302   5.230  49.814  0.00  0.00    +0.000 A 
ATOM     20 BR   UNL     1      19.219   6.517  48.432  0.00  0.00    +0.000 Br
ATOM     21  C   UNL     1      20.537   4.798  50.281  0.00  0.00    +0.000 A 
ATOM     22  N   UNL     1      20.693   3.869  51.249  0.00  0.00    +0.000 NA
ATOM     23  C   UNL     1      19.533   3.376  51.727  0.00  0.00    +0.000 A 
ATOM     24  N   UNL     1      19.733   2.324  52.649  0.00  0.00    +0.000 N 
ATOM     25  H   UNL     1      19.780   2.457  53.624  0.00  0.00    +0.000 HD
BRANCH  17  27
ATOM     26  C   UNL     1      16.120   4.265  52.093  0.00  0.00    +0.000 C 
ATOM     27  O   UNL     1      17.146   3.298  51.898  0.00  0.00    +0.000 OA
ENDBRANCH  17  27
ENDBRANCH   1  24
TORSDOF 4
ENDMDL
MODEL 6
REMARK VINA RESULT:    -7.355      3.361      4.958
REMARK INTER + INTRA:          -9.592
REMARK INTER:                  -9.060
REMARK INTRA:                  -0.532
REMARK UNBOUND:                -0.517
REMARK  Name = 
REMARK  7 active torsions:
REMARK  status: ('A' for Active; 'I' for Inactive)
REMARK    1  A    between atoms: C_1  and  O_2
REMARK    2  A    between atoms: O_2  and  C_3
REMARK    3  A    between atoms: N_10  and  S_11
REMARK    4  A    between atoms: S_11  and  C_14
REMARK    5  A    between atoms: C_19  and  N_20
REMARK    6  A    between atoms: N_20  and  C_21
REMARK    7  A    between atoms: N_20  and  C_22
REMARK                            x       y       z     vdW  Elec       q    Type
REMARK                         _______ _______ _______ _____ _____    ______ ____
ROOT
ATOM      1  S   UNL     1      22.492   3.377  50.025  0.00  0.00    +0.000 S 
ATOM      2  O   UNL     1      21.755   3.992  51.108  0.00  0.00    +0.000 OA
ATOM      3  O   UNL     1      21.913   2.271  49.288  0.00  0.00    +0.000 OA
ENDROOT
BRANCH   1   4
ATOM      4  C   UNL     1      24.076   2.829  50.701  0.00  0.00    +0.000 A 
ATOM      5  C   UNL     1      25.218   3.387  50.114  0.00  0.00    +0.000 A 
ATOM      6  C   UNL     1      26.470   2.917  50.469  0.00  0.00    +0.000 A 
ATOM      7  C   UNL     1      26.585   1.879  51.395  0.00  0.00    +0.000 A 
ATOM      8  C   UNL     1      25.476   1.290  52.052  0.00  0.00    +0.000 A 
ATOM      9  C   UNL     1      25.601   0.192  52.987  0.00  0.00    +0.000 A 
ATOM     10  C   UNL     1      24.408  -0.354  53.499  0.00  0.00    +0.000 A 
ATOM     11  C   UNL     1      23.157   0.140  53.167  0.00  0.00    +0.000 A 
ATOM     12  C   UNL     1      23.048   1.195  52.279  0.00  0.00    +0.000 A 
ATOM     13  C   UNL     1      24.177   1.789  51.678  0.00  0.00    +0.000 A 
BRANCH   9  14
ATOM     14  N   UNL     1      26.819  -0.394  53.368  0.00  0.00    +0.000 N 
ATOM     15  C   UNL     1      27.556   0.001  54.560  0.00  0.00    +0.000 C 
ATOM     16  C   UNL     1      27.232  -1.670  52.781  0.00  0.00    +0.000 C 
ENDBRANCH   9  14
ENDBRANCH   1   4
BRANCH   1  24
ATOM     17  C   UNL     1      22.590   6.835  49.990  0.00  0.00    +0.000 A 
ATOM     18  N   UNL     1      21.808   7.913  50.244  0.00  0.00    +0.000 NA
ATOM     19  C   UNL     1      20.597   7.907  49.641  0.00  0.00    +0.000 A 
ATOM     20 BR   UNL     1      19.418   9.345  49.974  0.00  0.00    +0.000 Br
ATOM     21  C   UNL     1      20.206   6.876  48.795  0.00  0.00    +0.000 A 
ATOM     22  N   UNL     1      20.973   5.799  48.516  0.00  0.00    +0.000 NA
ATOM     23  C   UNL     1      22.165   5.799  49.143  0.00  0.00    +0.000 A 
ATOM     24  N   UNL     1      22.890   4.605  48.924  0.00  0.00    +0.000 N 
ATOM     25  H   UNL     1      23.557   4.498  48.207  0.00  0.00    +0.000 HD
BRANCH  17  27
ATOM     26  C   UNL     1      24.581   8.003  50.407  0.00  0.00    +0.000 C 
ATOM     27  O   UNL     1      23.866   6.777  50.516  0.00  0.00    +0.000 OA
ENDBRANCH  17  27
ENDBRANCH   1  24
TORSDOF 4
ENDMDL
MODEL 7
REMARK VINA RESULT:    -7.287      4.369      6.148
REMARK INTER + INTRA:          -9.508
REMARK INTER:                  -9.041
REMARK INTRA:                  -0.467
REMARK UNBOUND:                -0.517
REMARK  Name = 
REMARK  7 active torsions:
REMARK  status: ('A' for Active; 'I' for Inactive)
REMARK    1  A    between atoms: C_1  and  O_2
REMARK    2  A    between atoms: O_2  and  C_3
REMARK    3  A    between atoms: N_10  and  S_11
REMARK    4  A    between atoms: S_11  and  C_14
REMARK    5  A    between atoms: C_19  and  N_20
REMARK    6  A    between atoms: N_20  and  C_21
REMARK    7  A    between atoms: N_20  and  C_22
REMARK                            x       y       z     vdW  Elec       q    Type
REMARK                         _______ _______ _______ _____ _____    ______ ____
ROOT
ATOM      1  S   UNL     1      23.685   3.535  51.667  0.00  0.00    +0.000 S 
ATOM      2  O   UNL     1      22.365   3.905  51.205  0.00  0.00    +0.000 OA
ATOM      3  O   UNL     1      24.110   3.884  53.009  0.00  0.00    +0.000 OA
ENDROOT
BRANCH   1   4
ATOM      4  C   UNL     1      24.875   4.240  50.503  0.00  0.00    +0.000 A 
ATOM      5  C   UNL     1      25.800   3.344  49.955  0.00  0.00    +0.000 A 
ATOM      6  C   UNL     1      26.835   3.821  49.171  0.00  0.00    +0.000 A 
ATOM      7  C   UNL     1      26.960   5.194  48.947  0.00  0.00    +0.000 A 
ATOM      8  C   UNL     1      26.044   6.154  49.444  0.00  0.00    +0.000 A 
ATOM      9  C   UNL     1      26.199   7.578  49.235  0.00  0.00    +0.000 A 
ATOM     10  C   UNL     1      25.261   8.425  49.859  0.00  0.00    +0.000 A 
ATOM     11  C   UNL     1      24.208   7.942  50.617  0.00  0.00    +0.000 A 
ATOM     12  C   UNL     1      24.063   6.579  50.804  0.00  0.00    +0.000 A 
ATOM     13  C   UNL     1      24.968   5.647  50.256  0.00  0.00    +0.000 A 
BRANCH   9  14
ATOM     14  N   UNL     1      27.245   8.167  48.506  0.00  0.00    +0.000 N 
ATOM     15  C   UNL     1      27.194   8.376  47.065  0.00  0.00    +0.000 C 
ATOM     16  C   UNL     1      28.290   8.919  49.202  0.00  0.00    +0.000 C 
ENDBRANCH   9  14
ENDBRANCH   1   4
BRANCH   1  24
ATOM     17  C   UNL     1      21.664   0.887  50.733  0.00  0.00    +0.000 A 
ATOM     18  N   UNL     1      20.476   0.311  51.039  0.00  0.00    +0.000 NA
ATOM     19  C   UNL     1      20.282   0.041  52.350  0.00  0.00    +0.000 A 
ATOM     20 BR   UNL     1      18.634  -0.719  52.878  0.00  0.00    +0.000 Br
ATOM     21  C   UNL     1      21.255   0.312  53.305  0.00  0.00    +0.000 A 
ATOM     22  N   UNL     1      22.451   0.871  53.023  0.00  0.00    +0.000 NA
ATOM     23  C   UNL     1      22.625   1.164  51.719  0.00  0.00    +0.000 A 
ATOM     24  N   UNL     1      23.834   1.856  51.477  0.00  0.00    +0.000 N 
ATOM     25  H   UNL     1      24.675   1.409  51.224  0.00  0.00    +0.000 HD
BRANCH  17  27
ATOM     26  C   UNL     1      20.946   1.834  48.711  0.00  0.00    +0.000 C 
ATOM     27  O   UNL     1      21.977   1.149  49.413  0.00  0.00    +0.000 OA
ENDBRANCH  17  27
ENDBRANCH   1  24
TORSDOF 4
ENDMDL
MODEL 8
REMARK VINA RESULT:    -7.272      1.785      2.511
REMARK INTER + INTRA:          -9.489
REMARK INTER:                  -9.255
REMARK INTRA:                  -0.234
REMARK UNBOUND:                -0.517
REMARK  Name = 
REMARK  7 active torsions:
REMARK  status: ('A' for Active; 'I' for Inactive)
REMARK    1  A    between atoms: C_1  and  O_2
REMARK    2  A    between atoms: O_2  and  C_3
REMARK    3  A    between atoms: N_10  and  S_11
REMARK    4  A    between atoms: S_11  and  C_14
REMARK    5  A    between atoms: C_19  and  N_20
REMARK    6  A    between atoms: N_20  and  C_21
REMARK    7  A    between atoms: N_20  and  C_22
REMARK                            x       y       z     vdW  Elec       q    Type
REMARK                         _______ _______ _______ _____ _____    ______ ____
ROOT
ATOM      1  S   UNL     1      21.533   0.892  52.910  0.00  0.00    +0.000 S 
ATOM      2  O   UNL     1      21.837   2.246  52.499  0.00  0.00    +0.000 OA
ATOM      3  O   UNL     1      20.521   0.649  53.920  0.00  0.00    +0.000 OA
ENDROOT
BRANCH   1   4
ATOM      4  C   UNL     1      23.079   0.148  53.478  0.00  0.00    +0.000 A 
ATOM      5  C   UNL     1      22.975  -0.717  54.574  0.00  0.00    +0.000 A 
ATOM      6  C   UNL     1      24.123  -1.216  55.164  0.00  0.00    +0.000 A 
ATOM      7  C   UNL     1      25.375  -0.839  54.676  0.00  0.00    +0.000 A 
ATOM      8  C   UNL     1      25.554   0.007  53.552  0.00  0.00    +0.000 A 
ATOM      9  C   UNL     1      26.856   0.419  53.073  0.00  0.00    +0.000 A 
ATOM     10  C   UNL     1      26.885   1.332  51.999  0.00  0.00    +0.000 A 
ATOM     11  C   UNL     1      25.734   1.804  51.390  0.00  0.00    +0.000 A 
ATOM     12  C   UNL     1      24.495   1.397  51.850  0.00  0.00    +0.000 A 
ATOM     13  C   UNL     1      24.353   0.518  52.943  0.00  0.00    +0.000 A 
BRANCH   9  14
ATOM     14  N   UNL     1      28.077   0.018  53.638  0.00  0.00    +0.000 N 
ATOM     15  C   UNL     1      28.767  -1.207  53.258  0.00  0.00    +0.000 C 
ATOM     16  C   UNL     1      28.892   0.982  54.380  0.00  0.00    +0.000 C 
ENDBRANCH   9  14
ENDBRANCH   1   4
BRANCH   1  24
ATOM     17  C   UNL     1      20.807   1.583  49.599  0.00  0.00    +0.000 A 
ATOM     18  N   UNL     1      19.988   2.351  48.838  0.00  0.00    +0.000 NA
ATOM     19  C   UNL     1      18.674   2.280  49.148  0.00  0.00    +0.000 A 
ATOM     20 BR   UNL     1      17.461   3.353  48.173  0.00  0.00    +0.000 Br
ATOM     21  C   UNL     1      18.203   1.449  50.157  0.00  0.00    +0.000 A 
ATOM     22  N   UNL     1      18.996   0.665  50.918  0.00  0.00    +0.000 NA
ATOM     23  C   UNL     1      20.308   0.762  50.623  0.00  0.00    +0.000 A 
ATOM     24  N   UNL     1      21.118   0.023  51.514  0.00  0.00    +0.000 N 
ATOM     25  H   UNL     1      21.413  -0.902  51.341  0.00  0.00    +0.000 HD
BRANCH  17  27
ATOM     26  C   UNL     1      22.689   2.798  48.904  0.00  0.00    +0.000 C 
ATOM     27  O   UNL     1      22.160   1.545  49.323  0.00  0.00    +0.000 OA
ENDBRANCH  17  27
ENDBRANCH   1  24
TORSDOF 4
ENDMDL
MODEL 9
REMARK VINA RESULT:    -7.226      4.402      6.513
REMARK INTER + INTRA:          -9.433
REMARK INTER:                  -9.627
REMARK INTRA:                   0.194
REMARK UNBOUND:                -0.517
REMARK  Name = 
REMARK  7 active torsions:
REMARK  status: ('A' for Active; 'I' for Inactive)
REMARK    1  A    between atoms: C_1  and  O_2
REMARK    2  A    between atoms: O_2  and  C_3
REMARK    3  A    between atoms: N_10  and  S_11
REMARK    4  A    between atoms: S_11  and  C_14
REMARK    5  A    between atoms: C_19  and  N_20
REMARK    6  A    between atoms: N_20  and  C_21
REMARK    7  A    between atoms: N_20  and  C_22
REMARK                            x       y       z     vdW  Elec       q    Type
REMARK                         _______ _______ _______ _____ _____    ______ ____
ROOT
ATOM      1  S   UNL     1      23.231   3.975  50.158  0.00  0.00    +0.000 S 
ATOM      2  O   UNL     1      22.352   5.124  50.098  0.00  0.00    +0.000 OA
ATOM      3  O   UNL     1      23.661   3.325  48.935  0.00  0.00    +0.000 OA
ENDROOT
BRANCH   1   4
ATOM      4  C   UNL     1      22.417   2.736  51.193  0.00  0.00    +0.000 A 
ATOM      5  C   UNL     1      21.051   2.933  51.424  0.00  0.00    +0.000 A 
ATOM      6  C   UNL     1      20.383   2.118  52.320  0.00  0.00    +0.000 A 
ATOM      7  C   UNL     1      21.079   1.118  53.000  0.00  0.00    +0.000 A 
ATOM      8  C   UNL     1      22.454   0.841  52.793  0.00  0.00    +0.000 A 
ATOM      9  C   UNL     1      23.176  -0.176  53.527  0.00  0.00    +0.000 A 
ATOM     10  C   UNL     1      24.560  -0.284  53.282  0.00  0.00    +0.000 A 
ATOM     11  C   UNL     1      25.219   0.513  52.361  0.00  0.00    +0.000 A 
ATOM     12  C   UNL     1      24.518   1.476  51.658  0.00  0.00    +0.000 A 
ATOM     13  C   UNL     1      23.139   1.694  51.856  0.00  0.00    +0.000 A 
BRANCH   9  14
ATOM     14  N   UNL     1      22.605  -1.014  54.498  0.00  0.00    +0.000 N 
ATOM     15  C   UNL     1      21.362  -1.744  54.290  0.00  0.00    +0.000 C 
ATOM     16  C   UNL     1      23.407  -1.471  55.634  0.00  0.00    +0.000 C 
ENDBRANCH   9  14
ENDBRANCH   1   4
BRANCH   1  24
ATOM     17  C   UNL     1      25.526   6.563  50.118  0.00  0.00    +0.000 A 
ATOM     18  N   UNL     1      26.378   7.202  49.278  0.00  0.00    +0.000 NA
ATOM     19  C   UNL     1      27.216   6.401  48.583  0.00  0.00    +0.000 A 
ATOM     20 BR   UNL     1      28.407   7.200  47.351  0.00  0.00    +0.000 Br
ATOM     21  C   UNL     1      27.218   5.022  48.749  0.00  0.00    +0.000 A 
ATOM     22  N   UNL     1      26.389   4.364  49.589  0.00  0.00    +0.000 NA
ATOM     23  C   UNL     1      25.537   5.166  50.257  0.00  0.00    +0.000 A 
ATOM     24  N   UNL     1      24.607   4.438  51.034  0.00  0.00    +0.000 N 
ATOM     25  H   UNL     1      24.744   4.223  51.986  0.00  0.00    +0.000 HD
BRANCH  17  27
ATOM     26  C   UNL     1      23.925   8.276  50.193  0.00  0.00    +0.000 C 
ATOM     27  O   UNL     1      24.669   7.299  50.913  0.00  0.00    +0.000 OA
ENDBRANCH  17  27
ENDBRANCH   1  24
TORSDOF 4
ENDMDL
