MODEL 1
REMARK VINA RESULT:    -7.955      0.000      0.000
REMARK INTER + INTRA:         -10.604
REMARK INTER:                 -10.048
REMARK INTRA:                  -0.556
REMARK UNBOUND:                -0.556
REMARK  Name = 
REMARK  7 active torsions:
REMARK  status: ('A' for Active; 'I' for Inactive)
REMARK    1  A    between atoms: C_1  and  O_2
REMARK    2  A    between atoms: O_2  and  C_3
REMARK    3  A    between atoms: C_7  and  N_8
REMARK    4  A    between atoms: N_11  and  C_12
REMARK    5  A    between atoms: C_21  and  N_22
REMARK    6  A    between atoms: C_25  and  O_26
REMARK    7  A    between atoms: O_26  and  C_27
REMARK                            x       y       z     vdW  Elec       q    Type
REMARK                         _______ _______ _______ _____ _____    ______ ____
ROOT
ATOM      1  C   UNL     1      29.402   6.301  47.757  0.00  0.00    +0.000 A 
ATOM      2  C   UNL     1      28.705   5.254  48.371  0.00  0.00    +0.000 A 
ATOM      3  C   UNL     1      27.356   5.342  48.667  0.00  0.00    +0.000 A 
ATOM      4  N   UNL     1      26.776   4.293  49.272  0.00  0.00    +0.000 NA
ATOM      5  C   UNL     1      25.466   4.333  49.570  0.00  0.00    +0.000 A 
ATOM      6  C   UNL     1      24.712   5.455  49.259  0.00  0.00    +0.000 A 
ATOM      7  C   UNL     1      25.275   6.543  48.594  0.00  0.00    +0.000 A 
ATOM      8  C   UNL     1      26.661   6.518  48.331  0.00  0.00    +0.000 A 
ATOM      9  C   UNL     1      27.371   7.596  47.755  0.00  0.00    +0.000 A 
ATOM     10  C   UNL     1      28.739   7.504  47.489  0.00  0.00    +0.000 A 
ENDROOT
BRANCH   5  11
ATOM     11  N   UNL     1      24.909   3.271  50.234  0.00  0.00    +0.000 N 
ATOM     12  C   UNL     1      23.629   2.659  49.863  0.00  0.00    +0.000 C 
ATOM     13  C   UNL     1      22.728   2.530  51.110  0.00  0.00    +0.000 C 
ATOM     14  N   UNL     1      23.456   1.809  52.168  0.00  0.00    +0.000 N 
ATOM     15  C   UNL     1      24.760   2.408  52.532  0.00  0.00    +0.000 C 
ATOM     16  C   UNL     1      25.659   2.558  51.278  0.00  0.00    +0.000 C 
BRANCH  14  17
ATOM     17  C   UNL     1      22.843   0.867  52.967  0.00  0.00    +0.000 A 
ATOM     18  C   UNL     1      21.463   0.928  53.214  0.00  0.00    +0.000 A 
ATOM     19  C   UNL     1      20.827   0.032  54.080  0.00  0.00    +0.000 A 
ATOM     20  C   UNL     1      21.563  -0.959  54.719  0.00  0.00    +0.000 A 
ATOM     21  C   UNL     1      22.930  -1.052  54.485  0.00  0.00    +0.000 A 
ATOM     22  C   UNL     1      23.558  -0.148  53.620  0.00  0.00    +0.000 A 
ENDBRANCH  14  17
ENDBRANCH   5  11
BRANCH   7  23
ATOM     23  N   UNL     1      24.489   7.702  48.430  0.00  0.00    +0.000 N 
ATOM     24  H   UNL     1      24.307   8.050  47.528  0.00  0.00    +0.000 HD
ATOM     25  H   UNL     1      24.122   8.163  49.218  0.00  0.00    +0.000 HD
ENDBRANCH   7  23
BRANCH   1  27
ATOM     26  C   UNL     1      31.345   4.958  47.657  0.00  0.00    +0.000 C 
ATOM     27  O   UNL     1      30.738   6.229  47.444  0.00  0.00    +0.000 OA
ENDBRANCH   1  27
BRANCH  10  28
ATOM     28  O   UNL     1      29.470   8.517  46.921  0.00  0.00    +0.000 OA
ATOM     29  C   UNL     1      29.735   9.640  47.755  0.00  0.00    +0.000 C 
ENDBRANCH  10  28
TORSDOF 5
ENDMDL
MODEL 2
REMARK VINA RESULT:    -7.930      4.999     10.423
REMARK INTER + INTRA:         -10.573
REMARK INTER:                 -10.019
REMARK INTRA:                  -0.554
REMARK UNBOUND:                -0.556
REMARK  Name = 
REMARK  7 active torsions:
REMARK  status: ('A' for Active; 'I' for Inactive)
REMARK    1  A    between atoms: C_1  and  O_2
REMARK    2  A    between atoms: O_2  and  C_3
REMARK    3  A    between atoms: C_7  and  N_8
REMARK    4  A    between atoms: N_11  and  C_12
REMARK    5  A    between atoms: C_21  and  N_22
REMARK    6  A    between atoms: C_25  and  O_26
REMARK    7  A    between atoms: O_26  and  C_27
REMARK                            x       y       z     vdW  Elec       q    Type
REMARK                         _______ _______ _______ _____ _____    ______ ____
ROOT
ATOM      1  C   UNL     1      17.975  -0.442  51.748  0.00  0.00    +0.000 A 
ATOM      2  C   UNL     1      18.987   0.444  51.361  0.00  0.00    +0.000 A 
ATOM      3  C   UNL     1      20.187   0.534  52.044  0.00  0.00    +0.000 A 
ATOM      4  N   UNL     1      21.092   1.425  51.609  0.00  0.00    +0.000 NA
ATOM      5  C   UNL     1      22.273   1.539  52.239  0.00  0.00    +0.000 A 
ATOM      6  C   UNL     1      22.561   0.744  53.338  0.00  0.00    +0.000 A 
ATOM      7  C   UNL     1      21.659  -0.219  53.789  0.00  0.00    +0.000 A 
ATOM      8  C   UNL     1      20.400  -0.299  53.158  0.00  0.00    +0.000 A 
ATOM      9  C   UNL     1      19.362  -1.160  53.581  0.00  0.00    +0.000 A 
ATOM     10  C   UNL     1      18.144  -1.219  52.900  0.00  0.00    +0.000 A 
ENDROOT
BRANCH   5  11
ATOM     11  N   UNL     1      23.160   2.492  51.807  0.00  0.00    +0.000 N 
ATOM     12  C   UNL     1      22.766   3.701  51.079  0.00  0.00    +0.000 C 
ATOM     13  C   UNL     1      23.637   3.859  49.813  0.00  0.00    +0.000 C 
ATOM     14  N   UNL     1      25.060   3.820  50.190  0.00  0.00    +0.000 N 
ATOM     15  C   UNL     1      25.461   2.612  50.947  0.00  0.00    +0.000 C 
ATOM     16  C   UNL     1      24.574   2.441  52.207  0.00  0.00    +0.000 C 
BRANCH  14  17
ATOM     17  C   UNL     1      25.993   4.658  49.616  0.00  0.00    +0.000 A 
ATOM     18  C   UNL     1      25.715   6.022  49.441  0.00  0.00    +0.000 A 
ATOM     19  C   UNL     1      26.610   6.882  48.794  0.00  0.00    +0.000 A 
ATOM     20  C   UNL     1      27.817   6.392  48.309  0.00  0.00    +0.000 A 
ATOM     21  C   UNL     1      28.125   5.047  48.478  0.00  0.00    +0.000 A 
ATOM     22  C   UNL     1      27.221   4.194  49.123  0.00  0.00    +0.000 A 
ENDBRANCH  14  17
ENDBRANCH   5  11
BRANCH   7  23
ATOM     23  N   UNL     1      21.956  -0.897  54.989  0.00  0.00    +0.000 N 
ATOM     24  H   UNL     1      21.322  -1.558  55.351  0.00  0.00    +0.000 HD
ATOM     25  H   UNL     1      22.796  -0.709  55.466  0.00  0.00    +0.000 HD
ENDBRANCH   7  23
BRANCH   1  27
ATOM     26  C   UNL     1      15.867   0.519  51.276  0.00  0.00    +0.000 C 
ATOM     27  O   UNL     1      16.781  -0.556  51.077  0.00  0.00    +0.000 OA
ENDBRANCH   1  27
BRANCH  10  28
ATOM     28  O   UNL     1      17.112  -2.046  53.264  0.00  0.00    +0.000 OA
ATOM     29  C   UNL     1      17.476  -3.363  53.663  0.00  0.00    +0.000 C 
ENDBRANCH  10  28
TORSDOF 5
ENDMDL
MODEL 3
REMARK VINA RESULT:    -7.804      6.313      9.954
REMARK INTER + INTRA:         -10.413
REMARK INTER:                  -9.812
REMARK INTRA:                  -0.601
REMARK UNBOUND:                -0.556
REMARK  Name = 
REMARK  7 active torsions:
REMARK  status: ('A' for Active; 'I' for Inactive)
REMARK    1  A    between atoms: C_1  and  O_2
REMARK    2  A    between atoms: O_2  and  C_3
REMARK    3  A    between atoms: C_7  and  N_8
REMARK    4  A    between atoms: N_11  and  C_12
REMARK    5  A    between atoms: C_21  and  N_22
REMARK    6  A    between atoms: C_25  and  O_26
REMARK    7  A    between atoms: O_26  and  C_27
REMARK                            x       y       z     vdW  Elec       q    Type
REMARK                         _______ _______ _______ _____ _____    ______ ____
ROOT
ATOM      1  C   UNL     1      17.611   1.159  49.842  0.00  0.00    +0.000 A 
ATOM      2  C   UNL     1      18.940   1.290  50.262  0.00  0.00    +0.000 A 
ATOM      3  C   UNL     1      19.433   0.615  51.365  0.00  0.00    +0.000 A 
ATOM      4  N   UNL     1      20.718   0.815  51.701  0.00  0.00    +0.000 NA
ATOM      5  C   UNL     1      21.239   0.174  52.761  0.00  0.00    +0.000 A 
ATOM      6  C   UNL     1      20.456  -0.692  53.511  0.00  0.00    +0.000 A 
ATOM      7  C   UNL     1      19.131  -0.952  53.162  0.00  0.00    +0.000 A 
ATOM      8  C   UNL     1      18.573  -0.237  52.082  0.00  0.00    +0.000 A 
ATOM      9  C   UNL     1      17.218  -0.334  51.691  0.00  0.00    +0.000 A 
ATOM     10  C   UNL     1      16.727   0.377  50.594  0.00  0.00    +0.000 A 
ENDROOT
BRANCH   5  11
ATOM     11  N   UNL     1      22.538   0.434  53.115  0.00  0.00    +0.000 N 
ATOM     12  C   UNL     1      23.223   1.697  52.827  0.00  0.00    +0.000 C 
ATOM     13  C   UNL     1      24.590   1.414  52.167  0.00  0.00    +0.000 C 
ATOM     14  N   UNL     1      25.362   0.490  53.017  0.00  0.00    +0.000 N 
ATOM     15  C   UNL     1      24.666  -0.778  53.331  0.00  0.00    +0.000 C 
ATOM     16  C   UNL     1      23.284  -0.496  53.975  0.00  0.00    +0.000 C 
BRANCH  14  17
ATOM     17  C   UNL     1      26.716   0.646  53.225  0.00  0.00    +0.000 A 
ATOM     18  C   UNL     1      27.541  -0.471  53.425  0.00  0.00    +0.000 A 
ATOM     19  C   UNL     1      28.904  -0.341  53.714  0.00  0.00    +0.000 A 
ATOM     20  C   UNL     1      29.478   0.921  53.803  0.00  0.00    +0.000 A 
ATOM     21  C   UNL     1      28.689   2.047  53.597  0.00  0.00    +0.000 A 
ATOM     22  C   UNL     1      27.325   1.906  53.314  0.00  0.00    +0.000 A 
ENDBRANCH  14  17
ENDBRANCH   5  11
BRANCH   7  23
ATOM     23  N   UNL     1      18.353  -1.734  54.042  0.00  0.00    +0.000 N 
ATOM     24  H   UNL     1      17.399  -1.531  54.168  0.00  0.00    +0.000 HD
ATOM     25  H   UNL     1      18.766  -2.481  54.532  0.00  0.00    +0.000 HD
ENDBRANCH   7  23
BRANCH   1  27
ATOM     26  C   UNL     1      16.909   3.213  48.905  0.00  0.00    +0.000 C 
ATOM     27  O   UNL     1      17.106   1.811  48.744  0.00  0.00    +0.000 OA
ENDBRANCH   1  27
BRANCH  10  28
ATOM     28  O   UNL     1      15.425   0.307  50.168  0.00  0.00    +0.000 OA
ATOM     29  C   UNL     1      14.462   0.960  50.990  0.00  0.00    +0.000 C 
ENDBRANCH  10  28
TORSDOF 5
ENDMDL
MODEL 4
REMARK VINA RESULT:    -7.647      1.693      3.067
REMARK INTER + INTRA:         -10.215
REMARK INTER:                  -9.650
REMARK INTRA:                  -0.565
REMARK UNBOUND:                -0.556
REMARK  Name = 
REMARK  7 active torsions:
REMARK  status: ('A' for Active; 'I' for Inactive)
REMARK    1  A    between atoms: C_1  and  O_2
REMARK    2  A    between atoms: O_2  and  C_3
REMARK    3  A    between atoms: C_7  and  N_8
REMARK    4  A    between atoms: N_11  and  C_12
REMARK    5  A    between atoms: C_21  and  N_22
REMARK    6  A    between atoms: C_25  and  O_26
REMARK    7  A    between atoms: O_26  and  C_27
REMARK                            x       y       z     vdW  Elec       q    Type
REMARK                         _______ _______ _______ _____ _____    ______ ____
ROOT
ATOM      1  C   UNL     1      25.191   8.586  48.069  0.00  0.00    +0.000 A 
ATOM      2  C   UNL     1      24.669   7.465  48.723  0.00  0.00    +0.000 A 
ATOM      3  C   UNL     1      25.422   6.326  48.948  0.00  0.00    +0.000 A 
ATOM      4  N   UNL     1      24.831   5.294  49.570  0.00  0.00    +0.000 NA
ATOM      5  C   UNL     1      25.528   4.172  49.814  0.00  0.00    +0.000 A 
ATOM      6  C   UNL     1      26.856   4.073  49.424  0.00  0.00    +0.000 A 
ATOM      7  C   UNL     1      27.510   5.143  48.814  0.00  0.00    +0.000 A 
ATOM      8  C   UNL     1      26.760   6.298  48.512  0.00  0.00    +0.000 A 
ATOM      9  C   UNL     1      27.276   7.409  47.807  0.00  0.00    +0.000 A 
ATOM     10  C   UNL     1      26.495   8.540  47.561  0.00  0.00    +0.000 A 
ENDROOT
BRANCH   5  11
ATOM     11  N   UNL     1      24.887   3.113  50.404  0.00  0.00    +0.000 N 
ATOM     12  C   UNL     1      23.532   2.681  50.049  0.00  0.00    +0.000 C 
ATOM     13  C   UNL     1      22.681   2.522  51.328  0.00  0.00    +0.000 C 
ATOM     14  N   UNL     1      23.372   1.624  52.269  0.00  0.00    +0.000 N 
ATOM     15  C   UNL     1      24.750   2.042  52.614  0.00  0.00    +0.000 C 
ATOM     16  C   UNL     1      25.601   2.222  51.330  0.00  0.00    +0.000 C 
BRANCH  14  17
ATOM     17  C   UNL     1      22.696   0.676  53.007  0.00  0.00    +0.000 A 
ATOM     18  C   UNL     1      21.308   0.766  53.186  0.00  0.00    +0.000 A 
ATOM     19  C   UNL     1      20.606  -0.138  53.992  0.00  0.00    +0.000 A 
ATOM     20  C   UNL     1      21.283  -1.165  54.637  0.00  0.00    +0.000 A 
ATOM     21  C   UNL     1      22.658  -1.288  54.470  0.00  0.00    +0.000 A 
ATOM     22  C   UNL     1      23.351  -0.376  53.665  0.00  0.00    +0.000 A 
ENDBRANCH  14  17
ENDBRANCH   5  11
BRANCH   7  23
ATOM     23  N   UNL     1      28.815   4.930  48.321  0.00  0.00    +0.000 N 
ATOM     24  H   UNL     1      28.963   4.305  47.576  0.00  0.00    +0.000 HD
ATOM     25  H   UNL     1      29.576   5.406  48.723  0.00  0.00    +0.000 HD
ENDBRANCH   7  23
BRANCH   1  27
ATOM     26  C   UNL     1      23.072   9.630  48.132  0.00  0.00    +0.000 C 
ATOM     27  O   UNL     1      24.464   9.730  47.847  0.00  0.00    +0.000 OA
ENDBRANCH   1  27
BRANCH  10  28
ATOM     28  O   UNL     1      26.954   9.647  46.893  0.00  0.00    +0.000 OA
ATOM     29  C   UNL     1      28.217  10.152  47.312  0.00  0.00    +0.000 C 
ENDBRANCH  10  28
TORSDOF 5
ENDMDL
MODEL 5
REMARK VINA RESULT:    -7.618      4.822      8.356
REMARK INTER + INTRA:         -10.179
REMARK INTER:                  -9.631
REMARK INTRA:                  -0.548
REMARK UNBOUND:                -0.556
REMARK  Name = 
REMARK  7 active torsions:
REMARK  status: ('A' for Active; 'I' for Inactive)
REMARK    1  A    between atoms: C_1  and  O_2
REMARK    2  A    between atoms: O_2  and  C_3
REMARK    3  A    between atoms: C_7  and  N_8
REMARK    4  A    between atoms: N_11  and  C_12
REMARK    5  A    between atoms: C_21  and  N_22
REMARK    6  A    between atoms: C_25  and  O_26
REMARK    7  A    between atoms: O_26  and  C_27
REMARK                            x       y       z     vdW  Elec       q    Type
REMARK                         _______ _______ _______ _____ _____    ______ ____
ROOT
ATOM      1  C   UNL     1      25.983   0.713  52.428  0.00  0.00    +0.000 A 
ATOM      2  C   UNL     1      24.626   0.954  52.184  0.00  0.00    +0.000 A 
ATOM      3  C   UNL     1      23.628   0.397  52.964  0.00  0.00    +0.000 A 
ATOM      4  N   UNL     1      22.353   0.673  52.644  0.00  0.00    +0.000 NA
ATOM      5  C   UNL     1      21.353   0.159  53.379  0.00  0.00    +0.000 A 
ATOM      6  C   UNL     1      21.631  -0.657  54.466  0.00  0.00    +0.000 A 
ATOM      7  C   UNL     1      22.944  -0.928  54.849  0.00  0.00    +0.000 A 
ATOM      8  C   UNL     1      23.989  -0.430  54.044  0.00  0.00    +0.000 A 
ATOM      9  C   UNL     1      25.356  -0.715  54.264  0.00  0.00    +0.000 A 
ATOM     10  C   UNL     1      26.351  -0.171  53.449  0.00  0.00    +0.000 A 
ENDROOT
BRANCH   5  11
ATOM     11  N   UNL     1      20.060   0.412  53.001  0.00  0.00    +0.000 N 
ATOM     12  C   UNL     1      18.946  -0.511  53.239  0.00  0.00    +0.000 C 
ATOM     13  C   UNL     1      18.152  -0.723  51.931  0.00  0.00    +0.000 C 
ATOM     14  N   UNL     1      17.745   0.584  51.388  0.00  0.00    +0.000 N 
ATOM     15  C   UNL     1      18.863   1.531  51.167  0.00  0.00    +0.000 C 
ATOM     16  C   UNL     1      19.674   1.728  52.474  0.00  0.00    +0.000 C 
BRANCH  14  17
ATOM     17  C   UNL     1      16.500   0.791  50.833  0.00  0.00    +0.000 A 
ATOM     18  C   UNL     1      16.134   0.152  49.639  0.00  0.00    +0.000 A 
ATOM     19  C   UNL     1      14.907   0.400  49.013  0.00  0.00    +0.000 A 
ATOM     20  C   UNL     1      14.009   1.298  49.577  0.00  0.00    +0.000 A 
ATOM     21  C   UNL     1      14.338   1.938  50.766  0.00  0.00    +0.000 A 
ATOM     22  C   UNL     1      15.569   1.686  51.382  0.00  0.00    +0.000 A 
ENDBRANCH  14  17
ENDBRANCH   5  11
BRANCH   7  23
ATOM     23  N   UNL     1      23.156  -1.871  55.876  0.00  0.00    +0.000 N 
ATOM     24  H   UNL     1      22.899  -2.811  55.742  0.00  0.00    +0.000 HD
ATOM     25  H   UNL     1      23.559  -1.588  56.728  0.00  0.00    +0.000 HD
ENDBRANCH   7  23
BRANCH   1  27
ATOM     26  C   UNL     1      26.791   2.625  51.297  0.00  0.00    +0.000 C 
ATOM     27  O   UNL     1      26.990   1.265  51.674  0.00  0.00    +0.000 OA
ENDBRANCH   1  27
BRANCH  10  28
ATOM     28  O   UNL     1      27.691  -0.407  53.630  0.00  0.00    +0.000 OA
ATOM     29  C   UNL     1      28.284   0.197  54.774  0.00  0.00    +0.000 C 
ENDBRANCH  10  28
TORSDOF 5
ENDMDL
MODEL 6
REMARK VINA RESULT:    -7.616      4.297      9.630
REMARK INTER + INTRA:         -10.176
REMARK INTER:                  -9.615
REMARK INTRA:                  -0.561
REMARK UNBOUND:                -0.556
REMARK  Name = 
REMARK  7 active torsions:
REMARK  status: ('A' for Active; 'I' for Inactive)
REMARK    1  A    between atoms: C_1  and  O_2
REMARK    2  A    between atoms: O_2  and  C_3
REMARK    3  A    between atoms: C_7  and  N_8
REMARK    4  A    between atoms: N_11  and  C_12
REMARK    5  A    between atoms: C_21  and  N_22
REMARK    6  A    between atoms: C_25  and  O_26
REMARK    7  A    between atoms: O_26  and  C_27
REMARK                            x       y       z     vdW  Elec       q    Type
REMARK                         _______ _______ _______ _____ _____    ______ ____
ROOT
ATOM      1  C   UNL     1      21.210  -0.552  53.890  0.00  0.00    +0.000 A 
ATOM      2  C   UNL     1      22.202   0.344  53.474  0.00  0.00    +0.000 A 
ATOM      3  C   UNL     1      21.980   1.275  52.475  0.00  0.00    +0.000 A 
ATOM      4  N   UNL     1      22.996   2.083  52.133  0.00  0.00    +0.000 NA
ATOM      5  C   UNL     1      22.822   3.007  51.173  0.00  0.00    +0.000 A 
ATOM      6  C   UNL     1      21.598   3.128  50.531  0.00  0.00    +0.000 A 
ATOM      7  C   UNL     1      20.511   2.332  50.893  0.00  0.00    +0.000 A 
ATOM      8  C   UNL     1      20.714   1.329  51.864  0.00  0.00    +0.000 A 
ATOM      9  C   UNL     1      19.726   0.393  52.246  0.00  0.00    +0.000 A 
ATOM     10  C   UNL     1      19.973  -0.561  53.235  0.00  0.00    +0.000 A 
ENDROOT
BRANCH   5  11
ATOM     11  N   UNL     1      23.889   3.785  50.805  0.00  0.00    +0.000 N 
ATOM     12  C   UNL     1      23.768   5.177  50.363  0.00  0.00    +0.000 C 
ATOM     13  C   UNL     1      24.542   5.378  49.041  0.00  0.00    +0.000 C 
ATOM     14  N   UNL     1      25.931   4.918  49.213  0.00  0.00    +0.000 N 
ATOM     15  C   UNL     1      26.061   3.519  49.681  0.00  0.00    +0.000 C 
ATOM     16  C   UNL     1      25.267   3.311  50.997  0.00  0.00    +0.000 C 
BRANCH  14  17
ATOM     17  C   UNL     1      27.001   5.606  48.679  0.00  0.00    +0.000 A 
ATOM     18  C   UNL     1      26.832   6.898  48.160  0.00  0.00    +0.000 A 
ATOM     19  C   UNL     1      27.881   7.590  47.544  0.00  0.00    +0.000 A 
ATOM     20  C   UNL     1      29.135   7.001  47.438  0.00  0.00    +0.000 A 
ATOM     21  C   UNL     1      29.336   5.726  47.954  0.00  0.00    +0.000 A 
ATOM     22  C   UNL     1      28.279   5.040  48.564  0.00  0.00    +0.000 A 
ENDBRANCH  14  17
ENDBRANCH   5  11
BRANCH   7  23
ATOM     23  N   UNL     1      19.340   2.412  50.112  0.00  0.00    +0.000 N 
ATOM     24  H   UNL     1      18.979   3.290  49.853  0.00  0.00    +0.000 HD
ATOM     25  H   UNL     1      18.882   1.589  49.826  0.00  0.00    +0.000 HD
ENDBRANCH   7  23
BRANCH   1  27
ATOM     26  C   UNL     1      22.738  -1.557  55.388  0.00  0.00    +0.000 C 
ATOM     27  O   UNL     1      21.406  -1.476  54.888  0.00  0.00    +0.000 OA
ENDBRANCH   1  27
BRANCH  10  28
ATOM     28  O   UNL     1      19.044  -1.482  53.649  0.00  0.00    +0.000 OA
ATOM     29  C   UNL     1      17.718  -1.292  53.166  0.00  0.00    +0.000 C 
ENDBRANCH  10  28
TORSDOF 5
ENDMDL
MODEL 7
REMARK VINA RESULT:    -7.558      5.201      7.119
REMARK INTER + INTRA:         -10.102
REMARK INTER:                  -9.537
REMARK INTRA:                  -0.566
REMARK UNBOUND:                -0.556
REMARK  Name = 
REMARK  7 active torsions:
REMARK  status: ('A' for Active; 'I' for Inactive)
REMARK    1  A    between atoms: C_1  and  O_2
REMARK    2  A    between atoms: O_2  and  C_3
REMARK    3  A    between atoms: C_7  and  N_8
REMARK    4  A    between atoms: N_11  and  C_12
REMARK    5  A    between atoms: C_21  and  N_22
REMARK    6  A    between atoms: C_25  and  O_26
REMARK    7  A    between atoms: O_26  and  C_27
REMARK                            x       y       z     vdW  Elec       q    Type
REMARK                         _______ _______ _______ _____ _____    ______ ____
ROOT
ATOM      1  C   UNL     1      27.267  -0.139  53.446  0.00  0.00    +0.000 A 
ATOM      2  C   UNL     1      25.907  -0.467  53.491  0.00  0.00    +0.000 A 
ATOM      3  C   UNL     1      24.916   0.477  53.292  0.00  0.00    +0.000 A 
ATOM      4  N   UNL     1      23.638   0.072  53.370  0.00  0.00    +0.000 NA
ATOM      5  C   UNL     1      22.644   0.955  53.177  0.00  0.00    +0.000 A 
ATOM      6  C   UNL     1      22.931   2.284  52.900  0.00  0.00    +0.000 A 
ATOM      7  C   UNL     1      24.247   2.727  52.772  0.00  0.00    +0.000 A 
ATOM      8  C   UNL     1      25.287   1.809  53.028  0.00  0.00    +0.000 A 
ATOM      9  C   UNL     1      26.658   2.154  53.030  0.00  0.00    +0.000 A 
ATOM     10  C   UNL     1      27.647   1.196  53.262  0.00  0.00    +0.000 A 
ENDROOT
BRANCH   5  11
ATOM     11  N   UNL     1      21.348   0.528  53.313  0.00  0.00    +0.000 N 
ATOM     12  C   UNL     1      20.907  -0.422  54.337  0.00  0.00    +0.000 C 
ATOM     13  C   UNL     1      20.076  -1.550  53.685  0.00  0.00    +0.000 C 
ATOM     14  N   UNL     1      18.979  -0.958  52.900  0.00  0.00    +0.000 N 
ATOM     15  C   UNL     1      19.416   0.021  51.878  0.00  0.00    +0.000 C 
ATOM     16  C   UNL     1      20.267   1.142  52.528  0.00  0.00    +0.000 C 
BRANCH  14  17
ATOM     17  C   UNL     1      17.712  -1.500  52.889  0.00  0.00    +0.000 A 
ATOM     18  C   UNL     1      17.485  -2.799  53.371  0.00  0.00    +0.000 A 
ATOM     19  C   UNL     1      16.226  -3.403  53.303  0.00  0.00    +0.000 A 
ATOM     20  C   UNL     1      15.152  -2.713  52.753  0.00  0.00    +0.000 A 
ATOM     21  C   UNL     1      15.342  -1.421  52.278  0.00  0.00    +0.000 A 
ATOM     22  C   UNL     1      16.608  -0.826  52.346  0.00  0.00    +0.000 A 
ENDBRANCH  14  17
ENDBRANCH   5  11
BRANCH   7  23
ATOM     23  N   UNL     1      24.471   4.112  52.625  0.00  0.00    +0.000 N 
ATOM     24  H   UNL     1      23.771   4.753  52.883  0.00  0.00    +0.000 HD
ATOM     25  H   UNL     1      25.327   4.436  52.265  0.00  0.00    +0.000 HD
ENDBRANCH   7  23
BRANCH   1  27
ATOM     26  C   UNL     1      28.109  -2.280  52.904  0.00  0.00    +0.000 C 
ATOM     27  O   UNL     1      28.267  -1.063  53.628  0.00  0.00    +0.000 OA
ENDBRANCH   1  27
BRANCH  10  28
ATOM     28  O   UNL     1      28.989   1.478  53.262  0.00  0.00    +0.000 OA
ATOM     29  C   UNL     1      29.484   2.163  54.409  0.00  0.00    +0.000 C 
ENDBRANCH  10  28
TORSDOF 5
ENDMDL
MODEL 8
REMARK VINA RESULT:    -7.368      4.716      8.456
REMARK INTER + INTRA:          -9.863
REMARK INTER:                  -9.306
REMARK INTRA:                  -0.557
REMARK UNBOUND:                -0.556
REMARK  Name = 
REMARK  7 active torsions:
REMARK  status: ('A' for Active; 'I' for Inactive)
REMARK    1  A    between atoms: C_1  and  O_2
REMARK    2  A    between atoms: O_2  and  C_3
REMARK    3  A    between atoms: C_7  and  N_8
REMARK    4  A    between atoms: N_11  and  C_12
REMARK    5  A    between atoms: C_21  and  N_22
REMARK    6  A    between atoms: C_25  and  O_26
REMARK    7  A    between atoms: O_26  and  C_27
REMARK                            x       y       z     vdW  Elec       q    Type
REMARK                         _______ _______ _______ _____ _____    ______ ____
ROOT
ATOM      1  C   UNL     1      24.429   0.406  52.987  0.00  0.00    +0.000 A 
ATOM      2  C   UNL     1      23.681   1.566  52.756  0.00  0.00    +0.000 A 
ATOM      3  C   UNL     1      24.162   2.611  51.985  0.00  0.00    +0.000 A 
ATOM      4  N   UNL     1      23.378   3.690  51.831  0.00  0.00    +0.000 NA
ATOM      5  C   UNL     1      23.804   4.724  51.086  0.00  0.00    +0.000 A 
ATOM      6  C   UNL     1      25.049   4.683  50.477  0.00  0.00    +0.000 A 
ATOM      7  C   UNL     1      25.868   3.559  50.583  0.00  0.00    +0.000 A 
ATOM      8  C   UNL     1      25.441   2.499  51.410  0.00  0.00    +0.000 A 
ATOM      9  C   UNL     1      26.219   1.351  51.682  0.00  0.00    +0.000 A 
ATOM     10  C   UNL     1      25.733   0.318  52.486  0.00  0.00    +0.000 A 
ENDROOT
BRANCH   5  11
ATOM     11  N   UNL     1      23.008   5.836  50.986  0.00  0.00    +0.000 N 
ATOM     12  C   UNL     1      21.543   5.797  51.041  0.00  0.00    +0.000 C 
ATOM     13  C   UNL     1      20.953   6.588  49.853  0.00  0.00    +0.000 C 
ATOM     14  N   UNL     1      21.519   7.948  49.840  0.00  0.00    +0.000 N 
ATOM     15  C   UNL     1      22.999   7.995  49.809  0.00  0.00    +0.000 C 
ATOM     16  C   UNL     1      23.594   7.184  50.989  0.00  0.00    +0.000 C 
BRANCH  14  17
ATOM     17  C   UNL     1      20.752   9.058  49.555  0.00  0.00    +0.000 A 
ATOM     18  C   UNL     1      19.403   9.112  49.935  0.00  0.00    +0.000 A 
ATOM     19  C   UNL     1      18.581  10.191  49.593  0.00  0.00    +0.000 A 
ATOM     20  C   UNL     1      19.097  11.253  48.861  0.00  0.00    +0.000 A 
ATOM     21  C   UNL     1      20.434  11.234  48.479  0.00  0.00    +0.000 A 
ATOM     22  C   UNL     1      21.247  10.148  48.823  0.00  0.00    +0.000 A 
ENDBRANCH  14  17
ENDBRANCH   5  11
BRANCH   7  23
ATOM     23  N   UNL     1      27.174   3.636  50.055  0.00  0.00    +0.000 N 
ATOM     24  H   UNL     1      27.438   3.051  49.309  0.00  0.00    +0.000 HD
ATOM     25  H   UNL     1      27.821   4.274  50.433  0.00  0.00    +0.000 HD
ENDBRANCH   7  23
BRANCH   1  27
ATOM     26  C   UNL     1      22.581  -0.593  54.069  0.00  0.00    +0.000 C 
ATOM     27  O   UNL     1      23.966  -0.647  53.738  0.00  0.00    +0.000 OA
ENDBRANCH   1  27
BRANCH  10  28
ATOM     28  O   UNL     1      26.444  -0.821  52.769  0.00  0.00    +0.000 OA
ATOM     29  C   UNL     1      27.793  -0.628  53.182  0.00  0.00    +0.000 C 
ENDBRANCH  10  28
TORSDOF 5
ENDMDL
MODEL 9
REMARK VINA RESULT:    -7.272      2.619      4.282
REMARK INTER + INTRA:          -9.741
REMARK INTER:                  -9.146
REMARK INTRA:                  -0.596
REMARK UNBOUND:                -0.556
REMARK  Name = 
REMARK  7 active torsions:
REMARK  status: ('A' for Active; 'I' for Inactive)
REMARK    1  A    between atoms: C_1  and  O_2
REMARK    2  A    between atoms: O_2  and  C_3
REMARK    3  A    between atoms: C_7  and  N_8
REMARK    4  A    between atoms: N_11  and  C_12
REMARK    5  A    between atoms: C_21  and  N_22
REMARK    6  A    between atoms: C_25  and  O_26
REMARK    7  A    between atoms: O_26  and  C_27
REMARK                            x       y       z     vdW  Elec       q    Type
REMARK                         _______ _______ _______ _____ _____    ______ ____
ROOT
ATOM      1  C   UNL     1      24.715   6.779  48.003  0.00  0.00    +0.000 A 
ATOM      2  C   UNL     1      23.792   5.810  48.412  0.00  0.00    +0.000 A 
ATOM      3  C   UNL     1      24.153   4.744  49.218  0.00  0.00    +0.000 A 
ATOM      4  N   UNL     1      23.203   3.854  49.546  0.00  0.00    +0.000 NA
ATOM      5  C   UNL     1      23.508   2.808  50.332  0.00  0.00    +0.000 A 
ATOM      6  C   UNL     1      24.802   2.641  50.803  0.00  0.00    +0.000 A 
ATOM      7  C   UNL     1      25.802   3.570  50.515  0.00  0.00    +0.000 A 
ATOM      8  C   UNL     1      25.489   4.636  49.647  0.00  0.00    +0.000 A 
ATOM      9  C   UNL     1      26.434   5.586  49.196  0.00  0.00    +0.000 A 
ATOM     10  C   UNL     1      26.061   6.640  48.359  0.00  0.00    +0.000 A 
ENDROOT
BRANCH   5  11
ATOM     11  N   UNL     1      22.533   1.886  50.610  0.00  0.00    +0.000 N 
ATOM     12  C   UNL     1      21.620   1.337  49.603  0.00  0.00    +0.000 C 
ATOM     13  C   UNL     1      20.163   1.438  50.106  0.00  0.00    +0.000 C 
ATOM     14  N   UNL     1      20.055   0.798  51.429  0.00  0.00    +0.000 N 
ATOM     15  C   UNL     1      20.991   1.332  52.445  0.00  0.00    +0.000 C 
ATOM     16  C   UNL     1      22.453   1.251  51.933  0.00  0.00    +0.000 C 
BRANCH  14  17
ATOM     17  C   UNL     1      18.975   0.016  51.778  0.00  0.00    +0.000 A 
ATOM     18  C   UNL     1      17.832  -0.028  50.966  0.00  0.00    +0.000 A 
ATOM     19  C   UNL     1      16.693  -0.753  51.332  0.00  0.00    +0.000 A 
ATOM     20  C   UNL     1      16.674  -1.461  52.527  0.00  0.00    +0.000 A 
ATOM     21  C   UNL     1      17.796  -1.447  53.348  0.00  0.00    +0.000 A 
ATOM     22  C   UNL     1      18.929  -0.715  52.974  0.00  0.00    +0.000 A 
ENDBRANCH  14  17
ENDBRANCH   5  11
BRANCH   7  23
ATOM     23  N   UNL     1      27.122   3.270  50.910  0.00  0.00    +0.000 N 
ATOM     24  H   UNL     1      27.879   3.739  50.493  0.00  0.00    +0.000 HD
ATOM     25  H   UNL     1      27.285   2.591  51.604  0.00  0.00    +0.000 HD
ENDBRANCH   7  23
BRANCH   1  27
ATOM     26  C   UNL     1      23.473   8.781  47.808  0.00  0.00    +0.000 C 
ATOM     27  O   UNL     1      24.375   7.851  47.214  0.00  0.00    +0.000 OA
ENDBRANCH   1  27
BRANCH  10  28
ATOM     28  O   UNL     1      26.938   7.593  47.904  0.00  0.00    +0.000 OA
ATOM     29  C   UNL     1      27.494   8.454  48.893  0.00  0.00    +0.000 C 
ENDBRANCH  10  28
TORSDOF 5
ENDMDL
