MODEL 1
REMARK VINA RESULT:    -9.270      0.000      0.000
REMARK INTER + INTRA:         -10.996
REMARK INTER:                 -10.625
REMARK INTRA:                  -0.371
REMARK UNBOUND:                -0.371
REMARK  Name = 
REMARK  8 active torsions:
REMARK  status: ('A' for Active; 'I' for Inactive)
REMARK    1  A    between atoms: C_1  and  C_2
REMARK    2  A    between atoms: C_2  and  C_3
REMARK    3  A    between atoms: C_3  and  C_4
REMARK    4  A    between atoms: C_16  and  C_17
REMARK    5  A    between atoms: C_16  and  C_18
REMARK    6  A    between atoms: C_22  and  C_23
REMARK    7  A    between atoms: C_24  and  C_25
REMARK    8  A    between atoms: C_26  and  O_27
REMARK                            x       y       z     vdW  Elec       q    Type
REMARK                         _______ _______ _______ _____ _____    ______ ____
ROOT
ATOM      1  C   UNL     1      22.182   1.420  52.537  0.00  0.00    +0.000 A 
ATOM      2  C   UNL     1      21.157   2.076  51.944  0.00  0.00    +0.000 A 
ATOM      3  C   UNL     1      21.144   3.529  51.769  0.00  0.00    +0.000 A 
ATOM      4  O   UNL     1      20.113   4.162  51.591  0.00  0.00    +0.000 OA
ATOM      5  O   UNL     1      22.362   4.126  51.856  0.00  0.00    +0.000 OA
ATOM      6  C   UNL     1      23.439   3.254  51.767  0.00  0.00    +0.000 A 
ATOM      7  C   UNL     1      24.388   3.566  50.832  0.00  0.00    +0.000 A 
ATOM      8  C   UNL     1      25.688   3.184  51.095  0.00  0.00    +0.000 A 
ATOM      9  C   UNL     1      25.930   2.261  52.132  0.00  0.00    +0.000 A 
ATOM     10  C   UNL     1      24.837   1.607  52.753  0.00  0.00    +0.000 A 
ATOM     11  C   UNL     1      23.529   2.090  52.506  0.00  0.00    +0.000 A 
ATOM     12  O   UNL     1      25.045   0.543  53.612  0.00  0.00    +0.000 OA
ATOM     13  C   UNL     1      26.393   0.001  53.762  0.00  0.00    +0.000 C 
ATOM     14  C   UNL     1      26.631  -0.302  55.249  0.00  0.00    +0.000 C 
ATOM     15  C   UNL     1      26.471  -1.316  52.965  0.00  0.00    +0.000 C 
ATOM     16  C   UNL     1      27.507   0.896  53.291  0.00  0.00    +0.000 C 
ATOM     17  C   UNL     1      27.305   1.949  52.506  0.00  0.00    +0.000 C 
ATOM     18  O   UNL     1      26.727   3.722  50.371  0.00  0.00    +0.000 OA
ATOM     19  C   UNL     1      26.386   4.324  49.094  0.00  0.00    +0.000 C 
ATOM     20  C   UNL     1      27.560   5.177  48.616  0.00  0.00    +0.000 C 
ATOM     21  C   UNL     1      25.063   5.115  49.074  0.00  0.00    +0.000 C 
ATOM     22  C   UNL     1      25.004   6.349  49.986  0.00  0.00    +0.000 C 
ATOM     23  C   UNL     1      24.007   4.113  49.486  0.00  0.00    +0.000 C 
ENDROOT
BRANCH  23  24
ATOM     24  O   UNL     1      22.706   4.670  49.346  0.00  0.00    +0.000 OA
ATOM     25  H   UNL     1      22.780   5.593  49.057  0.00  0.00    +0.000 HD
ENDBRANCH  23  24
BRANCH   1  26
ATOM     26  C   UNL     1      21.925  -0.025  52.862  0.00  0.00    +0.000 C 
BRANCH  26  28
ATOM     27  C   UNL     1      22.419  -1.378  54.941  0.00  0.00    +0.000 C 
ATOM     28  C   UNL     1      21.604  -0.226  54.351  0.00  0.00    +0.000 C 
ENDBRANCH  26  28
ENDBRANCH   1  26
TORSDOF 3
ENDMDL
MODEL 2
REMARK VINA RESULT:    -9.118      1.552      5.337
REMARK INTER + INTRA:         -10.822
REMARK INTER:                 -10.487
REMARK INTRA:                  -0.335
REMARK UNBOUND:                -0.371
REMARK  Name = 
REMARK  8 active torsions:
REMARK  status: ('A' for Active; 'I' for Inactive)
REMARK    1  A    between atoms: C_1  and  C_2
REMARK    2  A    between atoms: C_2  and  C_3
REMARK    3  A    between atoms: C_3  and  C_4
REMARK    4  A    between atoms: C_16  and  C_17
REMARK    5  A    between atoms: C_16  and  C_18
REMARK    6  A    between atoms: C_22  and  C_23
REMARK    7  A    between atoms: C_24  and  C_25
REMARK    8  A    between atoms: C_26  and  O_27
REMARK                            x       y       z     vdW  Elec       q    Type
REMARK                         _______ _______ _______ _____ _____    ______ ____
ROOT
ATOM      1  C   UNL     1      22.018   1.409  52.756  0.00  0.00    +0.000 A 
ATOM      2  C   UNL     1      21.742   0.421  53.640  0.00  0.00    +0.000 A 
ATOM      3  C   UNL     1      22.434  -0.868  53.627  0.00  0.00    +0.000 A 
ATOM      4  O   UNL     1      21.965  -1.873  54.142  0.00  0.00    +0.000 OA
ATOM      5  O   UNL     1      23.621  -0.873  52.965  0.00  0.00    +0.000 OA
ATOM      6  C   UNL     1      24.138   0.388  52.698  0.00  0.00    +0.000 A 
ATOM      7  C   UNL     1      25.426   0.606  53.104  0.00  0.00    +0.000 A 
ATOM      8  C   UNL     1      26.180   1.498  52.368  0.00  0.00    +0.000 A 
ATOM      9  C   UNL     1      25.530   2.342  51.446  0.00  0.00    +0.000 A 
ATOM     10  C   UNL     1      24.114   2.392  51.425  0.00  0.00    +0.000 A 
ATOM     11  C   UNL     1      23.389   1.406  52.138  0.00  0.00    +0.000 A 
ATOM     12  O   UNL     1      23.452   3.362  50.695  0.00  0.00    +0.000 OA
ATOM     13  C   UNL     1      24.223   4.428  50.060  0.00  0.00    +0.000 C 
ATOM     14  C   UNL     1      23.645   4.677  48.659  0.00  0.00    +0.000 C 
ATOM     15  C   UNL     1      24.059   5.707  50.904  0.00  0.00    +0.000 C 
ATOM     16  C   UNL     1      25.696   4.158  49.907  0.00  0.00    +0.000 C 
ATOM     17  C   UNL     1      26.326   3.194  50.571  0.00  0.00    +0.000 C 
ATOM     18  O   UNL     1      27.547   1.535  52.518  0.00  0.00    +0.000 OA
ATOM     19  C   UNL     1      28.084   0.955  53.736  0.00  0.00    +0.000 C 
ATOM     20  C   UNL     1      29.589   0.751  53.570  0.00  0.00    +0.000 C 
ATOM     21  C   UNL     1      27.384  -0.332  54.213  0.00  0.00    +0.000 C 
ATOM     22  C   UNL     1      27.479  -1.539  53.268  0.00  0.00    +0.000 C 
ATOM     23  C   UNL     1      25.936   0.063  54.408  0.00  0.00    +0.000 C 
ENDROOT
BRANCH  23  24
ATOM     24  O   UNL     1      25.205  -0.996  55.012  0.00  0.00    +0.000 OA
ATOM     25  H   UNL     1      25.178  -0.863  55.972  0.00  0.00    +0.000 HD
ENDBRANCH  23  24
BRANCH   1  26
ATOM     26  C   UNL     1      21.052   2.560  52.748  0.00  0.00    +0.000 C 
BRANCH  26  28
ATOM     27  C   UNL     1      19.991   1.732  50.606  0.00  0.00    +0.000 C 
ATOM     28  C   UNL     1      19.737   2.194  52.041  0.00  0.00    +0.000 C 
ENDBRANCH  26  28
ENDBRANCH   1  26
TORSDOF 3
ENDMDL
MODEL 3
REMARK VINA RESULT:    -8.442      1.650      6.943
REMARK INTER + INTRA:         -10.047
REMARK INTER:                  -9.827
REMARK INTRA:                  -0.220
REMARK UNBOUND:                -0.371
REMARK  Name = 
REMARK  8 active torsions:
REMARK  status: ('A' for Active; 'I' for Inactive)
REMARK    1  A    between atoms: C_1  and  C_2
REMARK    2  A    between atoms: C_2  and  C_3
REMARK    3  A    between atoms: C_3  and  C_4
REMARK    4  A    between atoms: C_16  and  C_17
REMARK    5  A    between atoms: C_16  and  C_18
REMARK    6  A    between atoms: C_22  and  C_23
REMARK    7  A    between atoms: C_24  and  C_25
REMARK    8  A    between atoms: C_26  and  O_27
REMARK                            x       y       z     vdW  Elec       q    Type
REMARK                         _______ _______ _______ _____ _____    ______ ____
ROOT
ATOM      1  C   UNL     1      25.723   3.103  50.874  0.00  0.00    +0.000 A 
ATOM      2  C   UNL     1      26.808   2.342  51.151  0.00  0.00    +0.000 A 
ATOM      3  C   UNL     1      27.065   1.784  52.479  0.00  0.00    +0.000 A 
ATOM      4  O   UNL     1      28.178   1.430  52.841  0.00  0.00    +0.000 OA
ATOM      5  O   UNL     1      25.978   1.724  53.294  0.00  0.00    +0.000 OA
ATOM      6  C   UNL     1      24.761   1.886  52.645  0.00  0.00    +0.000 A 
ATOM      7  C   UNL     1      23.826   0.914  52.872  0.00  0.00    +0.000 A 
ATOM      8  C   UNL     1      22.498   1.286  52.820  0.00  0.00    +0.000 A 
ATOM      9  C   UNL     1      22.162   2.535  52.260  0.00  0.00    +0.000 A 
ATOM     10  C   UNL     1      23.160   3.294  51.600  0.00  0.00    +0.000 A 
ATOM     11  C   UNL     1      24.515   2.910  51.750  0.00  0.00    +0.000 A 
ATOM     12  O   UNL     1      22.822   4.409  50.854  0.00  0.00    +0.000 OA
ATOM     13  C   UNL     1      21.412   4.716  50.630  0.00  0.00    +0.000 C 
ATOM     14  C   UNL     1      21.217   6.233  50.775  0.00  0.00    +0.000 C 
ATOM     15  C   UNL     1      21.055   4.302  49.189  0.00  0.00    +0.000 C 
ATOM     16  C   UNL     1      20.445   4.038  51.563  0.00  0.00    +0.000 C 
ATOM     17  C   UNL     1      20.780   2.996  52.318  0.00  0.00    +0.000 C 
ATOM     18  O   UNL     1      21.527   0.458  53.334  0.00  0.00    +0.000 OA
ATOM     19  C   UNL     1      21.889  -0.938  53.508  0.00  0.00    +0.000 C 
ATOM     20  C   UNL     1      20.855  -1.611  54.409  0.00  0.00    +0.000 C 
ATOM     21  C   UNL     1      23.326  -1.185  54.007  0.00  0.00    +0.000 C 
ATOM     22  C   UNL     1      23.657  -0.638  55.402  0.00  0.00    +0.000 C 
ATOM     23  C   UNL     1      24.214  -0.535  52.968  0.00  0.00    +0.000 C 
ENDROOT
BRANCH  23  24
ATOM     24  O   UNL     1      25.580  -0.835  53.219  0.00  0.00    +0.000 OA
ATOM     25  H   UNL     1      25.639  -1.565  53.855  0.00  0.00    +0.000 HD
ENDBRANCH  23  24
BRANCH   1  26
ATOM     26  C   UNL     1      25.742   3.798  49.542  0.00  0.00    +0.000 C 
BRANCH  26  28
ATOM     27  C   UNL     1      27.204   5.651  48.632  0.00  0.00    +0.000 C 
ATOM     28  C   UNL     1      27.166   4.206  49.132  0.00  0.00    +0.000 C 
ENDBRANCH  26  28
ENDBRANCH   1  26
TORSDOF 3
ENDMDL
MODEL 4
REMARK VINA RESULT:    -8.204      1.583      6.517
REMARK INTER + INTRA:          -9.775
REMARK INTER:                  -9.456
REMARK INTRA:                  -0.319
REMARK UNBOUND:                -0.371
REMARK  Name = 
REMARK  8 active torsions:
REMARK  status: ('A' for Active; 'I' for Inactive)
REMARK    1  A    between atoms: C_1  and  C_2
REMARK    2  A    between atoms: C_2  and  C_3
REMARK    3  A    between atoms: C_3  and  C_4
REMARK    4  A    between atoms: C_16  and  C_17
REMARK    5  A    between atoms: C_16  and  C_18
REMARK    6  A    between atoms: C_22  and  C_23
REMARK    7  A    between atoms: C_24  and  C_25
REMARK    8  A    between atoms: C_26  and  O_27
REMARK                            x       y       z     vdW  Elec       q    Type
REMARK                         _______ _______ _______ _____ _____    ______ ____
ROOT
ATOM      1  C   UNL     1      25.805   2.069  52.230  0.00  0.00    +0.000 A 
ATOM      2  C   UNL     1      26.090   0.811  52.642  0.00  0.00    +0.000 A 
ATOM      3  C   UNL     1      25.330   0.131  53.691  0.00  0.00    +0.000 A 
ATOM      4  O   UNL     1      25.780  -0.814  54.323  0.00  0.00    +0.000 OA
ATOM      5  O   UNL     1      24.099   0.654  53.936  0.00  0.00    +0.000 OA
ATOM      6  C   UNL     1      23.634   1.517  52.952  0.00  0.00    +0.000 A 
ATOM      7  C   UNL     1      22.392   1.240  52.450  0.00  0.00    +0.000 A 
ATOM      8  C   UNL     1      21.636   2.304  52.003  0.00  0.00    +0.000 A 
ATOM      9  C   UNL     1      22.263   3.552  51.811  0.00  0.00    +0.000 A 
ATOM     10  C   UNL     1      23.674   3.644  51.897  0.00  0.00    +0.000 A 
ATOM     11  C   UNL     1      24.394   2.549  52.435  0.00  0.00    +0.000 A 
ATOM     12  O   UNL     1      24.333   4.793  51.500  0.00  0.00    +0.000 OA
ATOM     13  C   UNL     1      23.577   5.861  50.852  0.00  0.00    +0.000 C 
ATOM     14  C   UNL     1      24.064   7.208  51.408  0.00  0.00    +0.000 C 
ATOM     15  C   UNL     1      23.871   5.808  49.341  0.00  0.00    +0.000 C 
ATOM     16  C   UNL     1      22.084   5.802  51.038  0.00  0.00    +0.000 C 
ATOM     17  C   UNL     1      21.452   4.714  51.466  0.00  0.00    +0.000 C 
ATOM     18  O   UNL     1      20.288   2.149  51.779  0.00  0.00    +0.000 OA
ATOM     19  C   UNL     1      19.811   0.788  51.603  0.00  0.00    +0.000 C 
ATOM     20  C   UNL     1      18.289   0.774  51.737  0.00  0.00    +0.000 C 
ATOM     21  C   UNL     1      20.473  -0.262  52.516  0.00  0.00    +0.000 C 
ATOM     22  C   UNL     1      20.244  -0.082  54.023  0.00  0.00    +0.000 C 
ATOM     23  C   UNL     1      21.950  -0.174  52.200  0.00  0.00    +0.000 C 
ENDROOT
BRANCH  23  24
ATOM     24  O   UNL     1      22.665  -1.213  52.855  0.00  0.00    +0.000 OA
ATOM     25  H   UNL     1      22.438  -1.217  53.798  0.00  0.00    +0.000 HD
ENDBRANCH  23  24
BRANCH   1  26
ATOM     26  C   UNL     1      26.829   2.705  51.332  0.00  0.00    +0.000 C 
BRANCH  26  28
ATOM     27  C   UNL     1      26.886   3.964  49.139  0.00  0.00    +0.000 C 
ATOM     28  C   UNL     1      26.371   2.721  49.866  0.00  0.00    +0.000 C 
ENDBRANCH  26  28
ENDBRANCH   1  26
TORSDOF 3
ENDMDL
MODEL 5
REMARK VINA RESULT:    -8.140      1.662      5.436
REMARK INTER + INTRA:          -9.701
REMARK INTER:                  -9.246
REMARK INTRA:                  -0.455
REMARK UNBOUND:                -0.371
REMARK  Name = 
REMARK  8 active torsions:
REMARK  status: ('A' for Active; 'I' for Inactive)
REMARK    1  A    between atoms: C_1  and  C_2
REMARK    2  A    between atoms: C_2  and  C_3
REMARK    3  A    between atoms: C_3  and  C_4
REMARK    4  A    between atoms: C_16  and  C_17
REMARK    5  A    between atoms: C_16  and  C_18
REMARK    6  A    between atoms: C_22  and  C_23
REMARK    7  A    between atoms: C_24  and  C_25
REMARK    8  A    between atoms: C_26  and  O_27
REMARK                            x       y       z     vdW  Elec       q    Type
REMARK                         _______ _______ _______ _____ _____    ______ ____
ROOT
ATOM      1  C   UNL     1      22.876   4.516  49.655  0.00  0.00    +0.000 A 
ATOM      2  C   UNL     1      23.958   5.252  49.306  0.00  0.00    +0.000 A 
ATOM      3  C   UNL     1      25.029   5.578  50.249  0.00  0.00    +0.000 A 
ATOM      4  O   UNL     1      25.794   6.516  50.077  0.00  0.00    +0.000 OA
ATOM      5  O   UNL     1      25.086   4.780  51.348  0.00  0.00    +0.000 OA
ATOM      6  C   UNL     1      24.351   3.606  51.247  0.00  0.00    +0.000 A 
ATOM      7  C   UNL     1      25.028   2.449  51.519  0.00  0.00    +0.000 A 
ATOM      8  C   UNL     1      24.304   1.400  52.049  0.00  0.00    +0.000 A 
ATOM      9  C   UNL     1      22.897   1.455  52.010  0.00  0.00    +0.000 A 
ATOM     10  C   UNL     1      22.259   2.482  51.271  0.00  0.00    +0.000 A 
ATOM     11  C   UNL     1      23.038   3.574  50.816  0.00  0.00    +0.000 A 
ATOM     12  O   UNL     1      20.898   2.439  51.030  0.00  0.00    +0.000 OA
ATOM     13  C   UNL     1      20.143   1.251  51.417  0.00  0.00    +0.000 C 
ATOM     14  C   UNL     1      18.809   1.702  52.032  0.00  0.00    +0.000 C 
ATOM     15  C   UNL     1      19.855   0.430  50.146  0.00  0.00    +0.000 C 
ATOM     16  C   UNL     1      20.822   0.347  52.411  0.00  0.00    +0.000 C 
ATOM     17  C   UNL     1      22.122   0.418  52.681  0.00  0.00    +0.000 C 
ATOM     18  O   UNL     1      24.954   0.335  52.629  0.00  0.00    +0.000 OA
ATOM     19  C   UNL     1      26.351   0.155  52.274  0.00  0.00    +0.000 C 
ATOM     20  C   UNL     1      26.995  -0.814  53.265  0.00  0.00    +0.000 C 
ATOM     21  C   UNL     1      27.166   1.455  52.138  0.00  0.00    +0.000 C 
ATOM     22  C   UNL     1      27.312   2.294  53.416  0.00  0.00    +0.000 C 
ATOM     23  C   UNL     1      26.449   2.253  51.071  0.00  0.00    +0.000 C 
ENDROOT
BRANCH  23  24
ATOM     24  O   UNL     1      27.196   3.412  50.724  0.00  0.00    +0.000 OA
ATOM     25  H   UNL     1      27.260   3.997  51.495  0.00  0.00    +0.000 HD
ENDBRANCH  23  24
BRANCH   1  26
ATOM     26  C   UNL     1      21.760   4.488  48.648  0.00  0.00    +0.000 C 
BRANCH  26  28
ATOM     27  C   UNL     1      22.351   2.264  47.598  0.00  0.00    +0.000 C 
ATOM     28  C   UNL     1      22.175   3.764  47.357  0.00  0.00    +0.000 C 
ENDBRANCH  26  28
ENDBRANCH   1  26
TORSDOF 3
ENDMDL
MODEL 6
REMARK VINA RESULT:    -7.672      2.079      5.602
REMARK INTER + INTRA:          -9.165
REMARK INTER:                  -8.940
REMARK INTRA:                  -0.225
REMARK UNBOUND:                -0.371
REMARK  Name = 
REMARK  8 active torsions:
REMARK  status: ('A' for Active; 'I' for Inactive)
REMARK    1  A    between atoms: C_1  and  C_2
REMARK    2  A    between atoms: C_2  and  C_3
REMARK    3  A    between atoms: C_3  and  C_4
REMARK    4  A    between atoms: C_16  and  C_17
REMARK    5  A    between atoms: C_16  and  C_18
REMARK    6  A    between atoms: C_22  and  C_23
REMARK    7  A    between atoms: C_24  and  C_25
REMARK    8  A    between atoms: C_26  and  O_27
REMARK                            x       y       z     vdW  Elec       q    Type
REMARK                         _______ _______ _______ _____ _____    ______ ____
ROOT
ATOM      1  C   UNL     1      23.732   3.649  49.893  0.00  0.00    +0.000 A 
ATOM      2  C   UNL     1      22.826   4.315  49.139  0.00  0.00    +0.000 A 
ATOM      3  C   UNL     1      21.753   3.639  48.409  0.00  0.00    +0.000 A 
ATOM      4  O   UNL     1      21.180   4.149  47.458  0.00  0.00    +0.000 OA
ATOM      5  O   UNL     1      21.468   2.383  48.846  0.00  0.00    +0.000 OA
ATOM      6  C   UNL     1      21.994   2.074  50.093  0.00  0.00    +0.000 A 
ATOM      7  C   UNL     1      21.106   1.593  51.016  0.00  0.00    +0.000 A 
ATOM      8  C   UNL     1      21.591   0.715  51.965  0.00  0.00    +0.000 A 
ATOM      9  C   UNL     1      22.985   0.587  52.126  0.00  0.00    +0.000 A 
ATOM     10  C   UNL     1      23.850   1.485  51.453  0.00  0.00    +0.000 A 
ATOM     11  C   UNL     1      23.313   2.309  50.434  0.00  0.00    +0.000 A 
ATOM     12  O   UNL     1      25.198   1.529  51.758  0.00  0.00    +0.000 OA
ATOM     13  C   UNL     1      25.701   0.747  52.884  0.00  0.00    +0.000 C 
ATOM     14  C   UNL     1      27.037   0.109  52.474  0.00  0.00    +0.000 C 
ATOM     15  C   UNL     1      25.946   1.707  54.064  0.00  0.00    +0.000 C 
ATOM     16  C   UNL     1      24.795  -0.356  53.362  0.00  0.00    +0.000 C 
ATOM     17  C   UNL     1      23.510  -0.429  53.031  0.00  0.00    +0.000 C 
ATOM     18  O   UNL     1      20.720  -0.039  52.717  0.00  0.00    +0.000 OA
ATOM     19  C   UNL     1      19.347   0.430  52.788  0.00  0.00    +0.000 C 
ATOM     20  C   UNL     1      18.465  -0.691  53.334  0.00  0.00    +0.000 C 
ATOM     21  C   UNL     1      18.784   1.010  51.476  0.00  0.00    +0.000 C 
ATOM     22  C   UNL     1      18.680   0.031  50.298  0.00  0.00    +0.000 C 
ATOM     23  C   UNL     1      19.715   2.150  51.125  0.00  0.00    +0.000 C 
ENDROOT
BRANCH  23  24
ATOM     24  O   UNL     1      19.212   2.885  50.017  0.00  0.00    +0.000 OA
ATOM     25  H   UNL     1      18.285   3.119  50.179  0.00  0.00    +0.000 HD
ENDBRANCH  23  24
BRANCH   1  26
ATOM     26  C   UNL     1      24.905   4.461  50.365  0.00  0.00    +0.000 C 
BRANCH  26  28
ATOM     27  C   UNL     1      26.997   4.704  48.963  0.00  0.00    +0.000 C 
ATOM     28  C   UNL     1      25.577   5.217  49.208  0.00  0.00    +0.000 C 
ENDBRANCH  26  28
ENDBRANCH   1  26
TORSDOF 3
ENDMDL
MODEL 7
REMARK VINA RESULT:    -7.654      1.608      4.790
REMARK INTER + INTRA:          -9.144
REMARK INTER:                  -8.796
REMARK INTRA:                  -0.348
REMARK UNBOUND:                -0.371
REMARK  Name = 
REMARK  8 active torsions:
REMARK  status: ('A' for Active; 'I' for Inactive)
REMARK    1  A    between atoms: C_1  and  C_2
REMARK    2  A    between atoms: C_2  and  C_3
REMARK    3  A    between atoms: C_3  and  C_4
REMARK    4  A    between atoms: C_16  and  C_17
REMARK    5  A    between atoms: C_16  and  C_18
REMARK    6  A    between atoms: C_22  and  C_23
REMARK    7  A    between atoms: C_24  and  C_25
REMARK    8  A    between atoms: C_26  and  O_27
REMARK                            x       y       z     vdW  Elec       q    Type
REMARK                         _______ _______ _______ _____ _____    ______ ____
ROOT
ATOM      1  C   UNL     1      25.528   1.824  51.896  0.00  0.00    +0.000 A 
ATOM      2  C   UNL     1      26.330   2.740  51.303  0.00  0.00    +0.000 A 
ATOM      3  C   UNL     1      26.096   3.236  49.947  0.00  0.00    +0.000 A 
ATOM      4  O   UNL     1      26.976   3.751  49.273  0.00  0.00    +0.000 OA
ATOM      5  O   UNL     1      24.834   3.047  49.479  0.00  0.00    +0.000 OA
ATOM      6  C   UNL     1      23.900   2.723  50.454  0.00  0.00    +0.000 A 
ATOM      7  C   UNL     1      22.773   3.499  50.486  0.00  0.00    +0.000 A 
ATOM      8  C   UNL     1      21.607   2.905  50.926  0.00  0.00    +0.000 A 
ATOM      9  C   UNL     1      21.681   1.661  51.583  0.00  0.00    +0.000 A 
ATOM     10  C   UNL     1      22.948   1.137  51.943  0.00  0.00    +0.000 A 
ATOM     11  C   UNL     1      24.110   1.739  51.401  0.00  0.00    +0.000 A 
ATOM     12  O   UNL     1      23.048   0.037  52.776  0.00  0.00    +0.000 OA
ATOM     13  C   UNL     1      21.840  -0.493  53.403  0.00  0.00    +0.000 C 
ATOM     14  C   UNL     1      21.900  -2.028  53.350  0.00  0.00    +0.000 C 
ATOM     15  C   UNL     1      21.828  -0.044  54.877  0.00  0.00    +0.000 C 
ATOM     16  C   UNL     1      20.542  -0.063  52.775  0.00  0.00    +0.000 C 
ATOM     17  C   UNL     1      20.451   0.963  51.936  0.00  0.00    +0.000 C 
ATOM     18  O   UNL     1      20.394   3.512  50.698  0.00  0.00    +0.000 OA
ATOM     19  C   UNL     1      20.424   4.933  50.399  0.00  0.00    +0.000 C 
ATOM     20  C   UNL     1      19.072   5.349  49.821  0.00  0.00    +0.000 C 
ATOM     21  C   UNL     1      21.591   5.391  49.503  0.00  0.00    +0.000 C 
ATOM     22  C   UNL     1      21.615   4.810  48.082  0.00  0.00    +0.000 C 
ATOM     23  C   UNL     1      22.839   4.981  50.254  0.00  0.00    +0.000 C 
ENDROOT
BRANCH  23  24
ATOM     24  O   UNL     1      24.000   5.496  49.615  0.00  0.00    +0.000 OA
ATOM     25  H   UNL     1      24.792   5.136  50.044  0.00  0.00    +0.000 HD
ENDBRANCH  23  24
BRANCH   1  26
ATOM     26  C   UNL     1      26.049   1.241  53.180  0.00  0.00    +0.000 C 
BRANCH  26  28
ATOM     27  C   UNL     1      26.507  -1.159  52.523  0.00  0.00    +0.000 C 
ATOM     28  C   UNL     1      27.130   0.179  52.925  0.00  0.00    +0.000 C 
ENDBRANCH  26  28
ENDBRANCH   1  26
TORSDOF 3
ENDMDL
MODEL 8
REMARK VINA RESULT:    -7.520      1.914      5.989
REMARK INTER + INTRA:          -8.990
REMARK INTER:                  -8.740
REMARK INTRA:                  -0.250
REMARK UNBOUND:                -0.371
REMARK  Name = 
REMARK  8 active torsions:
REMARK  status: ('A' for Active; 'I' for Inactive)
REMARK    1  A    between atoms: C_1  and  C_2
REMARK    2  A    between atoms: C_2  and  C_3
REMARK    3  A    between atoms: C_3  and  C_4
REMARK    4  A    between atoms: C_16  and  C_17
REMARK    5  A    between atoms: C_16  and  C_18
REMARK    6  A    between atoms: C_22  and  C_23
REMARK    7  A    between atoms: C_24  and  C_25
REMARK    8  A    between atoms: C_26  and  O_27
REMARK                            x       y       z     vdW  Elec       q    Type
REMARK                         _______ _______ _______ _____ _____    ______ ____
ROOT
ATOM      1  C   UNL     1      25.305   1.844  52.264  0.00  0.00    +0.000 A 
ATOM      2  C   UNL     1      25.130   0.613  52.800  0.00  0.00    +0.000 A 
ATOM      3  C   UNL     1      23.921   0.234  53.532  0.00  0.00    +0.000 A 
ATOM      4  O   UNL     1      23.894  -0.701  54.320  0.00  0.00    +0.000 OA
ATOM      5  O   UNL     1      22.839   1.024  53.299  0.00  0.00    +0.000 OA
ATOM      6  C   UNL     1      22.953   1.840  52.181  0.00  0.00    +0.000 A 
ATOM      7  C   UNL     1      21.928   1.766  51.277  0.00  0.00    +0.000 A 
ATOM      8  C   UNL     1      21.642   2.902  50.548  0.00  0.00    +0.000 A 
ATOM      9  C   UNL     1      22.570   3.962  50.545  0.00  0.00    +0.000 A 
ATOM     10  C   UNL     1      23.847   3.772  51.129  0.00  0.00    +0.000 A 
ATOM     11  C   UNL     1      24.063   2.624  51.931  0.00  0.00    +0.000 A 
ATOM     12  O   UNL     1      24.852   4.705  50.951  0.00  0.00    +0.000 OA
ATOM     13  C   UNL     1      24.635   5.821  50.033  0.00  0.00    +0.000 C 
ATOM     14  C   UNL     1      25.205   7.095  50.674  0.00  0.00    +0.000 C 
ATOM     15  C   UNL     1      25.405   5.528  48.731  0.00  0.00    +0.000 C 
ATOM     16  C   UNL     1      23.199   6.092  49.673  0.00  0.00    +0.000 C 
ATOM     17  C   UNL     1      22.222   5.216  49.888  0.00  0.00    +0.000 C 
ATOM     18  O   UNL     1      20.454   3.001  49.862  0.00  0.00    +0.000 OA
ATOM     19  C   UNL     1      19.760   1.757  49.579  0.00  0.00    +0.000 C 
ATOM     20  C   UNL     1      18.326   2.071  49.158  0.00  0.00    +0.000 C 
ATOM     21  C   UNL     1      19.806   0.710  50.709  0.00  0.00    +0.000 C 
ATOM     22  C   UNL     1      19.126   1.112  52.026  0.00  0.00    +0.000 C 
ATOM     23  C   UNL     1      21.279   0.454  50.940  0.00  0.00    +0.000 C 
ENDROOT
BRANCH  23  24
ATOM     24  O   UNL     1      21.463  -0.624  51.849  0.00  0.00    +0.000 OA
ATOM     25  H   UNL     1      22.362  -0.976  51.754  0.00  0.00    +0.000 HD
ENDBRANCH  23  24
BRANCH   1  26
ATOM     26  C   UNL     1      26.692   2.144  51.771  0.00  0.00    +0.000 C 
BRANCH  26  28
ATOM     27  C   UNL     1      28.411   2.425  53.605  0.00  0.00    +0.000 C 
ATOM     28  C   UNL     1      27.764   1.447  52.623  0.00  0.00    +0.000 C 
ENDBRANCH  26  28
ENDBRANCH   1  26
TORSDOF 3
ENDMDL
MODEL 9
REMARK VINA RESULT:    -7.207      2.048      3.183
REMARK INTER + INTRA:          -8.631
REMARK INTER:                  -8.399
REMARK INTRA:                  -0.232
REMARK UNBOUND:                -0.371
REMARK  Name = 
REMARK  8 active torsions:
REMARK  status: ('A' for Active; 'I' for Inactive)
REMARK    1  A    between atoms: C_1  and  C_2
REMARK    2  A    between atoms: C_2  and  C_3
REMARK    3  A    between atoms: C_3  and  C_4
REMARK    4  A    between atoms: C_16  and  C_17
REMARK    5  A    between atoms: C_16  and  C_18
REMARK    6  A    between atoms: C_22  and  C_23
REMARK    7  A    between atoms: C_24  and  C_25
REMARK    8  A    between atoms: C_26  and  O_27
REMARK                            x       y       z     vdW  Elec       q    Type
REMARK                         _______ _______ _______ _____ _____    ______ ____
ROOT
ATOM      1  C   UNL     1      19.490   2.072  51.274  0.00  0.00    +0.000 A 
ATOM      2  C   UNL     1      18.958   2.986  50.428  0.00  0.00    +0.000 A 
ATOM      3  C   UNL     1      19.439   4.365  50.349  0.00  0.00    +0.000 A 
ATOM      4  O   UNL     1      18.761   5.275  49.894  0.00  0.00    +0.000 OA
ATOM      5  O   UNL     1      20.685   4.566  50.856  0.00  0.00    +0.000 OA
ATOM      6  C   UNL     1      21.418   3.404  51.059  0.00  0.00    +0.000 A 
ATOM      7  C   UNL     1      22.664   3.376  50.495  0.00  0.00    +0.000 A 
ATOM      8  C   UNL     1      23.632   2.626  51.132  0.00  0.00    +0.000 A 
ATOM      9  C   UNL     1      23.239   1.714  52.132  0.00  0.00    +0.000 A 
ATOM     10  C   UNL     1      21.862   1.449  52.331  0.00  0.00    +0.000 A 
ATOM     11  C   UNL     1      20.911   2.298  51.713  0.00  0.00    +0.000 A 
ATOM     12  O   UNL     1      21.453   0.407  53.143  0.00  0.00    +0.000 OA
ATOM     13  C   UNL     1      22.452  -0.514  53.679  0.00  0.00    +0.000 C 
ATOM     14  C   UNL     1      22.098  -0.816  55.143  0.00  0.00    +0.000 C 
ATOM     15  C   UNL     1      22.382  -1.822  52.867  0.00  0.00    +0.000 C 
ATOM     16  C   UNL     1      23.873  -0.020  53.643  0.00  0.00    +0.000 C 
ATOM     17  C   UNL     1      24.260   1.013  52.902  0.00  0.00    +0.000 C 
ATOM     18  O   UNL     1      24.959   2.794  50.810  0.00  0.00    +0.000 OA
ATOM     19  C   UNL     1      25.244   3.421  49.532  0.00  0.00    +0.000 C 
ATOM     20  C   UNL     1      26.708   3.856  49.506  0.00  0.00    +0.000 C 
ATOM     21  C   UNL     1      24.300   4.575  49.143  0.00  0.00    +0.000 C 
ATOM     22  C   UNL     1      24.326   5.803  50.064  0.00  0.00    +0.000 C 
ATOM     23  C   UNL     1      22.918   3.960  49.134  0.00  0.00    +0.000 C 
ENDROOT
BRANCH  23  24
ATOM     24  O   UNL     1      21.963   4.881  48.624  0.00  0.00    +0.000 OA
ATOM     25  H   UNL     1      21.202   4.922  49.224  0.00  0.00    +0.000 HD
ENDBRANCH  23  24
BRANCH   1  26
ATOM     26  C   UNL     1      18.721   0.788  51.408  0.00  0.00    +0.000 C 
BRANCH  26  28
ATOM     27  C   UNL     1      16.623  -0.310  50.516  0.00  0.00    +0.000 C 
ATOM     28  C   UNL     1      17.872   0.499  50.160  0.00  0.00    +0.000 C 
ENDBRANCH  26  28
ENDBRANCH   1  26
TORSDOF 3
ENDMDL
