MODEL 1
REMARK VINA RESULT:    -9.282      0.000      0.000
REMARK INTER + INTRA:         -13.241
REMARK INTER:                 -12.538
REMARK INTRA:                  -0.703
REMARK UNBOUND:                -0.703
REMARK  Name = 
REMARK  7 active torsions:
REMARK  status: ('A' for Active; 'I' for Inactive)
REMARK    1  A    between atoms: C_1  and  C_2
REMARK    2  A    between atoms: C_2  and  N_3
REMARK    3  A    between atoms: N_3  and  C_4
REMARK    4  A    between atoms: C_4  and  C_5
REMARK    5  A    between atoms: N_8  and  C_9
REMARK    6  A    between atoms: C_16  and  C_17
REMARK    7  A    between atoms: N_21  and  C_22
REMARK                            x       y       z     vdW  Elec       q    Type
REMARK                         _______ _______ _______ _____ _____    ______ ____
ROOT
ATOM      1  C   UNL     1      25.047   3.452  50.808  0.00  0.00    +0.000 A 
ATOM      2  C   UNL     1      23.661   3.623  50.898  0.00  0.00    +0.000 A 
ATOM      3  F   UNL     1      23.041   4.636  50.276  0.00  0.00    +0.000 F 
ATOM      4  C   UNL     1      22.858   2.784  51.661  0.00  0.00    +0.000 A 
ATOM      5  C   UNL     1      23.431   1.738  52.389  0.00  0.00    +0.000 A 
ATOM      6  C   UNL     1      22.514   0.877  53.173  0.00  0.00    +0.000 A 
ATOM      7  O   UNL     1      21.333   1.188  53.275  0.00  0.00    +0.000 OA
ATOM      8  C   UNL     1      23.092  -0.303  53.825  0.00  0.00    +0.000 A 
ATOM      9  C   UNL     1      24.431  -0.418  53.808  0.00  0.00    +0.000 A 
ATOM     10  N   UNL     1      25.363   0.416  53.173  0.00  0.00    +0.000 N 
ATOM     11  C   UNL     1      24.818   1.499  52.371  0.00  0.00    +0.000 A 
ATOM     12  C   UNL     1      25.577   2.337  51.518  0.00  0.00    +0.000 A 
ATOM     13  F   UNL     1      26.866   2.042  51.285  0.00  0.00    +0.000 F 
ENDROOT
BRANCH  10  14
ATOM     14  C   UNL     1      26.769   0.168  53.412  0.00  0.00    +0.000 A 
ATOM     15  C   UNL     1      27.538   1.020  54.232  0.00  0.00    +0.000 A 
ATOM     16  C   UNL     1      28.899   0.784  54.472  0.00  0.00    +0.000 A 
ATOM     17  C   UNL     1      29.519  -0.332  53.926  0.00  0.00    +0.000 A 
ATOM     18  C   UNL     1      28.792  -1.181  53.099  0.00  0.00    +0.000 A 
ATOM     19  C   UNL     1      27.448  -0.908  52.816  0.00  0.00    +0.000 A 
ENDBRANCH  10  14
BRANCH   1  23
ATOM     20  C   UNL     1      27.281   5.200  48.383  0.00  0.00    +0.000 C 
ATOM     21  C   UNL     1      26.168   6.192  48.742  0.00  0.00    +0.000 C 
ATOM     22  C   UNL     1      25.702   5.760  50.129  0.00  0.00    +0.000 C 
ATOM     23  N   UNL     1      25.864   4.313  50.096  0.00  0.00    +0.000 N 
ATOM     24  C   UNL     1      26.868   3.905  49.109  0.00  0.00    +0.000 C 
BRANCH  20  25
ATOM     25  C   UNL     1      28.665   5.738  48.777  0.00  0.00    +0.000 C 
BRANCH  25  26
ATOM     26  N   UNL     1      28.685   7.202  48.842  0.00  0.00    +0.000 N 
ATOM     27  H   UNL     1      28.092   7.567  48.097  0.00  0.00    +0.000 HD
ATOM     28  H   UNL     1      28.347   7.468  49.767  0.00  0.00    +0.000 HD
BRANCH  26  30
ATOM     29  C   UNL     1      30.185   9.182  49.240  0.00  0.00    +0.000 C 
ATOM     30  C   UNL     1      30.028   7.770  48.689  0.00  0.00    +0.000 C 
ENDBRANCH  26  30
ENDBRANCH  25  26
ENDBRANCH  20  25
ENDBRANCH   1  23
BRANCH   8  31
ATOM     31  C   UNL     1      22.319  -1.338  54.520  0.00  0.00    +0.000 C 
ATOM     32  O   UNL     1      21.228  -1.767  54.183  0.00  0.00    +0.000 OA
ATOM     33  O   UNL     1      22.886  -1.749  55.671  0.00  0.00    +0.000 OA
ENDBRANCH   8  31
TORSDOF 6
ENDMDL
MODEL 2
REMARK VINA RESULT:    -9.149      3.107      6.349
REMARK INTER + INTRA:         -13.062
REMARK INTER:                 -11.663
REMARK INTRA:                  -1.398
REMARK UNBOUND:                -0.703
REMARK  Name = 
REMARK  7 active torsions:
REMARK  status: ('A' for Active; 'I' for Inactive)
REMARK    1  A    between atoms: C_1  and  C_2
REMARK    2  A    between atoms: C_2  and  N_3
REMARK    3  A    between atoms: N_3  and  C_4
REMARK    4  A    between atoms: C_4  and  C_5
REMARK    5  A    between atoms: N_8  and  C_9
REMARK    6  A    between atoms: C_16  and  C_17
REMARK    7  A    between atoms: N_21  and  C_22
REMARK                            x       y       z     vdW  Elec       q    Type
REMARK                         _______ _______ _______ _____ _____    ______ ____
ROOT
ATOM      1  C   UNL     1      23.679   0.108  53.271  0.00  0.00    +0.000 A 
ATOM      2  C   UNL     1      23.003  -0.750  54.147  0.00  0.00    +0.000 A 
ATOM      3  F   UNL     1      23.651  -1.407  55.119  0.00  0.00    +0.000 F 
ATOM      4  C   UNL     1      21.640  -0.997  54.038  0.00  0.00    +0.000 A 
ATOM      5  C   UNL     1      20.899  -0.399  53.015  0.00  0.00    +0.000 A 
ATOM      6  C   UNL     1      19.449  -0.701  52.964  0.00  0.00    +0.000 A 
ATOM      7  O   UNL     1      18.984  -1.556  53.708  0.00  0.00    +0.000 OA
ATOM      8  C   UNL     1      18.644   0.031  51.981  0.00  0.00    +0.000 A 
ATOM      9  C   UNL     1      19.306   0.787  51.089  0.00  0.00    +0.000 A 
ATOM     10  N   UNL     1      20.685   1.034  51.016  0.00  0.00    +0.000 N 
ATOM     11  C   UNL     1      21.497   0.465  52.079  0.00  0.00    +0.000 A 
ATOM     12  C   UNL     1      22.871   0.740  52.284  0.00  0.00    +0.000 A 
ATOM     13  F   UNL     1      23.461   1.711  51.566  0.00  0.00    +0.000 F 
ENDROOT
BRANCH  10  14
ATOM     14  C   UNL     1      21.183   1.775  49.878  0.00  0.00    +0.000 A 
ATOM     15  C   UNL     1      21.153   3.185  49.847  0.00  0.00    +0.000 A 
ATOM     16  C   UNL     1      21.638   3.911  48.750  0.00  0.00    +0.000 A 
ATOM     17  C   UNL     1      22.201   3.245  47.669  0.00  0.00    +0.000 A 
ATOM     18  C   UNL     1      22.229   1.855  47.662  0.00  0.00    +0.000 A 
ATOM     19  C   UNL     1      21.689   1.134  48.734  0.00  0.00    +0.000 A 
ENDBRANCH  10  14
BRANCH   1  23
ATOM     20  C   UNL     1      27.184   1.144  54.027  0.00  0.00    +0.000 C 
ATOM     21  C   UNL     1      27.200  -0.384  53.899  0.00  0.00    +0.000 C 
ATOM     22  C   UNL     1      26.019  -0.705  52.987  0.00  0.00    +0.000 C 
ATOM     23  N   UNL     1      25.046   0.320  53.336  0.00  0.00    +0.000 N 
ATOM     24  C   UNL     1      25.691   1.507  53.903  0.00  0.00    +0.000 C 
BRANCH  20  25
ATOM     25  C   UNL     1      28.090   1.809  52.981  0.00  0.00    +0.000 C 
BRANCH  25  26
ATOM     26  N   UNL     1      27.369   2.809  52.189  0.00  0.00    +0.000 N 
ATOM     27  H   UNL     1      26.622   3.200  52.764  0.00  0.00    +0.000 HD
ATOM     28  H   UNL     1      28.046   3.517  51.906  0.00  0.00    +0.000 HD
BRANCH  26  30
ATOM     29  C   UNL     1      26.320   3.307  49.957  0.00  0.00    +0.000 C 
ATOM     30  C   UNL     1      26.775   2.260  50.965  0.00  0.00    +0.000 C 
ENDBRANCH  26  30
ENDBRANCH  25  26
ENDBRANCH  20  25
ENDBRANCH   1  23
BRANCH   8  31
ATOM     31  C   UNL     1      17.181  -0.033  51.883  0.00  0.00    +0.000 C 
ATOM     32  O   UNL     1      16.514  -1.046  51.759  0.00  0.00    +0.000 OA
ATOM     33  O   UNL     1      16.593   1.179  51.850  0.00  0.00    +0.000 OA
ENDBRANCH   8  31
TORSDOF 6
ENDMDL
MODEL 3
REMARK VINA RESULT:    -8.884      3.904      6.817
REMARK INTER + INTRA:         -12.703
REMARK INTER:                 -11.415
REMARK INTRA:                  -1.288
REMARK UNBOUND:                -0.703
REMARK  Name = 
REMARK  7 active torsions:
REMARK  status: ('A' for Active; 'I' for Inactive)
REMARK    1  A    between atoms: C_1  and  C_2
REMARK    2  A    between atoms: C_2  and  N_3
REMARK    3  A    between atoms: N_3  and  C_4
REMARK    4  A    between atoms: C_4  and  C_5
REMARK    5  A    between atoms: N_8  and  C_9
REMARK    6  A    between atoms: C_16  and  C_17
REMARK    7  A    between atoms: N_21  and  C_22
REMARK                            x       y       z     vdW  Elec       q    Type
REMARK                         _______ _______ _______ _____ _____    ______ ____
ROOT
ATOM      1  C   UNL     1      23.509   0.349  53.226  0.00  0.00    +0.000 A 
ATOM      2  C   UNL     1      22.855  -0.506  54.121  0.00  0.00    +0.000 A 
ATOM      3  F   UNL     1      23.517  -1.112  55.117  0.00  0.00    +0.000 F 
ATOM      4  C   UNL     1      21.503  -0.804  54.008  0.00  0.00    +0.000 A 
ATOM      5  C   UNL     1      20.751  -0.261  52.963  0.00  0.00    +0.000 A 
ATOM      6  C   UNL     1      19.312  -0.615  52.910  0.00  0.00    +0.000 A 
ATOM      7  O   UNL     1      18.870  -1.464  53.674  0.00  0.00    +0.000 OA
ATOM      8  C   UNL     1      18.491   0.061  51.899  0.00  0.00    +0.000 A 
ATOM      9  C   UNL     1      19.134   0.813  50.991  0.00  0.00    +0.000 A 
ATOM     10  N   UNL     1      20.504   1.106  50.922  0.00  0.00    +0.000 N 
ATOM     11  C   UNL     1      21.326   0.596  52.007  0.00  0.00    +0.000 A 
ATOM     12  C   UNL     1      22.688   0.925  52.215  0.00  0.00    +0.000 A 
ATOM     13  F   UNL     1      23.250   1.894  51.474  0.00  0.00    +0.000 F 
ENDROOT
BRANCH  10  14
ATOM     14  C   UNL     1      20.986   1.830  49.766  0.00  0.00    +0.000 A 
ATOM     15  C   UNL     1      20.780   3.220  49.630  0.00  0.00    +0.000 A 
ATOM     16  C   UNL     1      21.248   3.931  48.516  0.00  0.00    +0.000 A 
ATOM     17  C   UNL     1      21.968   3.276  47.525  0.00  0.00    +0.000 A 
ATOM     18  C   UNL     1      22.173   1.904  47.622  0.00  0.00    +0.000 A 
ATOM     19  C   UNL     1      21.652   1.189  48.708  0.00  0.00    +0.000 A 
ENDBRANCH  10  14
BRANCH   1  23
ATOM     20  C   UNL     1      27.219   0.525  52.865  0.00  0.00    +0.000 C 
ATOM     21  C   UNL     1      26.712   1.971  52.849  0.00  0.00    +0.000 C 
ATOM     22  C   UNL     1      25.399   1.926  53.625  0.00  0.00    +0.000 C 
ATOM     23  N   UNL     1      24.867   0.611  53.295  0.00  0.00    +0.000 N 
ATOM     24  C   UNL     1      25.929  -0.317  52.898  0.00  0.00    +0.000 C 
BRANCH  20  25
ATOM     25  C   UNL     1      28.174   0.273  54.041  0.00  0.00    +0.000 C 
BRANCH  25  26
ATOM     26  N   UNL     1      29.572   0.203  53.605  0.00  0.00    +0.000 N 
ATOM     27  H   UNL     1      29.611   0.417  52.608  0.00  0.00    +0.000 HD
ATOM     28  H   UNL     1      30.097   0.876  54.163  0.00  0.00    +0.000 HD
BRANCH  26  30
ATOM     29  C   UNL     1      29.379  -2.283  53.266  0.00  0.00    +0.000 C 
ATOM     30  C   UNL     1      30.181  -1.113  53.823  0.00  0.00    +0.000 C 
ENDBRANCH  26  30
ENDBRANCH  25  26
ENDBRANCH  20  25
ENDBRANCH   1  23
BRANCH   8  31
ATOM     31  C   UNL     1      17.032  -0.057  51.792  0.00  0.00    +0.000 C 
ATOM     32  O   UNL     1      16.419  -1.020  51.362  0.00  0.00    +0.000 OA
ATOM     33  O   UNL     1      16.377   1.068  52.139  0.00  0.00    +0.000 OA
ENDBRANCH   8  31
TORSDOF 6
ENDMDL
MODEL 4
REMARK VINA RESULT:    -8.849      3.436      6.607
REMARK INTER + INTRA:         -12.656
REMARK INTER:                 -11.267
REMARK INTRA:                  -1.389
REMARK UNBOUND:                -0.703
REMARK  Name = 
REMARK  7 active torsions:
REMARK  status: ('A' for Active; 'I' for Inactive)
REMARK    1  A    between atoms: C_1  and  C_2
REMARK    2  A    between atoms: C_2  and  N_3
REMARK    3  A    between atoms: N_3  and  C_4
REMARK    4  A    between atoms: C_4  and  C_5
REMARK    5  A    between atoms: N_8  and  C_9
REMARK    6  A    between atoms: C_16  and  C_17
REMARK    7  A    between atoms: N_21  and  C_22
REMARK                            x       y       z     vdW  Elec       q    Type
REMARK                         _______ _______ _______ _____ _____    ______ ____
ROOT
ATOM      1  C   UNL     1      21.725   0.885  51.870  0.00  0.00    +0.000 A 
ATOM      2  C   UNL     1      21.786  -0.085  52.879  0.00  0.00    +0.000 A 
ATOM      3  F   UNL     1      20.679  -0.686  53.337  0.00  0.00    +0.000 F 
ATOM      4  C   UNL     1      22.982  -0.450  53.484  0.00  0.00    +0.000 A 
ATOM      5  C   UNL     1      24.176   0.169  53.108  0.00  0.00    +0.000 A 
ATOM      6  C   UNL     1      25.415  -0.277  53.789  0.00  0.00    +0.000 A 
ATOM      7  O   UNL     1      25.338  -1.047  54.738  0.00  0.00    +0.000 OA
ATOM      8  C   UNL     1      26.686   0.270  53.300  0.00  0.00    +0.000 A 
ATOM      9  C   UNL     1      26.618   1.259  52.393  0.00  0.00    +0.000 A 
ATOM     10  N   UNL     1      25.476   1.800  51.784  0.00  0.00    +0.000 N 
ATOM     11  C   UNL     1      24.210   1.165  52.114  0.00  0.00    +0.000 A 
ATOM     12  C   UNL     1      22.975   1.443  51.478  0.00  0.00    +0.000 A 
ATOM     13  F   UNL     1      22.960   2.223  50.385  0.00  0.00    +0.000 F 
ENDROOT
BRANCH  10  14
ATOM     14  C   UNL     1      25.643   2.960  50.936  0.00  0.00    +0.000 A 
ATOM     15  C   UNL     1      26.613   2.990  49.912  0.00  0.00    +0.000 A 
ATOM     16  C   UNL     1      26.778   4.107  49.082  0.00  0.00    +0.000 A 
ATOM     17  C   UNL     1      25.951   5.213  49.232  0.00  0.00    +0.000 A 
ATOM     18  C   UNL     1      24.997   5.221  50.243  0.00  0.00    +0.000 A 
ATOM     19  C   UNL     1      24.876   4.125  51.107  0.00  0.00    +0.000 A 
ENDBRANCH  10  14
BRANCH   1  23
ATOM     20  C   UNL     1      18.519   1.300  50.007  0.00  0.00    +0.000 C 
ATOM     21  C   UNL     1      18.252   1.767  51.442  0.00  0.00    +0.000 C 
ATOM     22  C   UNL     1      19.616   2.210  51.962  0.00  0.00    +0.000 C 
ATOM     23  N   UNL     1      20.534   1.296  51.298  0.00  0.00    +0.000 N 
ATOM     24  C   UNL     1      19.963   0.762  50.058  0.00  0.00    +0.000 C 
BRANCH  20  25
ATOM     25  C   UNL     1      18.296   2.431  48.992  0.00  0.00    +0.000 C 
BRANCH  25  26
ATOM     26  N   UNL     1      19.373   2.496  48.000  0.00  0.00    +0.000 N 
ATOM     27  H   UNL     1      20.117   1.860  48.288  0.00  0.00    +0.000 HD
ATOM     28  H   UNL     1      18.971   2.234  47.100  0.00  0.00    +0.000 HD
BRANCH  26  30
ATOM     29  C   UNL     1      20.750   4.324  49.044  0.00  0.00    +0.000 C 
ATOM     30  C   UNL     1      19.941   3.840  47.848  0.00  0.00    +0.000 C 
ENDBRANCH  26  30
ENDBRANCH  25  26
ENDBRANCH  20  25
ENDBRANCH   1  23
BRANCH   8  31
ATOM     31  C   UNL     1      28.012  -0.161  53.756  0.00  0.00    +0.000 C 
ATOM     32  O   UNL     1      28.640  -1.118  53.335  0.00  0.00    +0.000 OA
ATOM     33  O   UNL     1      28.484   0.562  54.790  0.00  0.00    +0.000 OA
ENDBRANCH   8  31
TORSDOF 6
ENDMDL
MODEL 5
REMARK VINA RESULT:    -8.824      3.675      7.816
REMARK INTER + INTRA:         -12.622
REMARK INTER:                 -11.915
REMARK INTRA:                  -0.707
REMARK UNBOUND:                -0.703
REMARK  Name = 
REMARK  7 active torsions:
REMARK  status: ('A' for Active; 'I' for Inactive)
REMARK    1  A    between atoms: C_1  and  C_2
REMARK    2  A    between atoms: C_2  and  N_3
REMARK    3  A    between atoms: N_3  and  C_4
REMARK    4  A    between atoms: C_4  and  C_5
REMARK    5  A    between atoms: N_8  and  C_9
REMARK    6  A    between atoms: C_16  and  C_17
REMARK    7  A    between atoms: N_21  and  C_22
REMARK                            x       y       z     vdW  Elec       q    Type
REMARK                         _______ _______ _______ _____ _____    ______ ____
ROOT
ATOM      1  C   UNL     1      22.484   0.469  52.145  0.00  0.00    +0.000 A 
ATOM      2  C   UNL     1      22.782  -0.369  53.226  0.00  0.00    +0.000 A 
ATOM      3  F   UNL     1      21.854  -1.177  53.759  0.00  0.00    +0.000 F 
ATOM      4  C   UNL     1      24.033  -0.384  53.830  0.00  0.00    +0.000 A 
ATOM      5  C   UNL     1      25.041   0.470  53.375  0.00  0.00    +0.000 A 
ATOM      6  C   UNL     1      26.354   0.394  54.060  0.00  0.00    +0.000 A 
ATOM      7  O   UNL     1      26.469  -0.290  55.070  0.00  0.00    +0.000 OA
ATOM      8  C   UNL     1      27.452   1.187  53.497  0.00  0.00    +0.000 A 
ATOM      9  C   UNL     1      27.144   2.051  52.515  0.00  0.00    +0.000 A 
ATOM     10  N   UNL     1      25.902   2.247  51.893  0.00  0.00    +0.000 N 
ATOM     11  C   UNL     1      24.828   1.357  52.303  0.00  0.00    +0.000 A 
ATOM     12  C   UNL     1      23.560   1.276  51.678  0.00  0.00    +0.000 A 
ATOM     13  F   UNL     1      23.352   1.934  50.526  0.00  0.00    +0.000 F 
ENDROOT
BRANCH  10  14
ATOM     14  C   UNL     1      25.780   3.338  50.950  0.00  0.00    +0.000 A 
ATOM     15  C   UNL     1      24.805   4.345  51.110  0.00  0.00    +0.000 A 
ATOM     16  C   UNL     1      24.684   5.407  50.205  0.00  0.00    +0.000 A 
ATOM     17  C   UNL     1      25.560   5.510  49.131  0.00  0.00    +0.000 A 
ATOM     18  C   UNL     1      26.520   4.525  48.936  0.00  0.00    +0.000 A 
ATOM     19  C   UNL     1      26.599   3.434  49.811  0.00  0.00    +0.000 A 
ENDBRANCH  10  14
BRANCH   1  23
ATOM     20  C   UNL     1      18.943   1.123  51.167  0.00  0.00    +0.000 C 
ATOM     21  C   UNL     1      19.780   1.272  49.892  0.00  0.00    +0.000 C 
ATOM     22  C   UNL     1      21.009   0.401  50.136  0.00  0.00    +0.000 C 
ATOM     23  N   UNL     1      21.226   0.532  51.570  0.00  0.00    +0.000 N 
ATOM     24  C   UNL     1      19.992   0.894  52.272  0.00  0.00    +0.000 C 
BRANCH  20  25
ATOM     25  C   UNL     1      17.904  -0.000  51.033  0.00  0.00    +0.000 C 
BRANCH  25  26
ATOM     26  N   UNL     1      16.935   0.017  52.133  0.00  0.00    +0.000 N 
ATOM     27  H   UNL     1      17.291   0.629  52.868  0.00  0.00    +0.000 HD
ATOM     28  H   UNL     1      16.050   0.350  51.751  0.00  0.00    +0.000 HD
BRANCH  26  30
ATOM     29  C   UNL     1      17.889  -1.927  53.415  0.00  0.00    +0.000 C 
ATOM     30  C   UNL     1      16.689  -1.309  52.709  0.00  0.00    +0.000 C 
ENDBRANCH  26  30
ENDBRANCH  25  26
ENDBRANCH  20  25
ENDBRANCH   1  23
BRANCH   8  31
ATOM     31  C   UNL     1      28.845   1.128  53.954  0.00  0.00    +0.000 C 
ATOM     32  O   UNL     1      29.528   0.121  54.047  0.00  0.00    +0.000 OA
ATOM     33  O   UNL     1      29.325   2.316  54.369  0.00  0.00    +0.000 OA
ENDBRANCH   8  31
TORSDOF 6
ENDMDL
MODEL 6
REMARK VINA RESULT:    -8.612      3.908      7.304
REMARK INTER + INTRA:         -12.336
REMARK INTER:                 -11.484
REMARK INTRA:                  -0.852
REMARK UNBOUND:                -0.703
REMARK  Name = 
REMARK  7 active torsions:
REMARK  status: ('A' for Active; 'I' for Inactive)
REMARK    1  A    between atoms: C_1  and  C_2
REMARK    2  A    between atoms: C_2  and  N_3
REMARK    3  A    between atoms: N_3  and  C_4
REMARK    4  A    between atoms: C_4  and  C_5
REMARK    5  A    between atoms: N_8  and  C_9
REMARK    6  A    between atoms: C_16  and  C_17
REMARK    7  A    between atoms: N_21  and  C_22
REMARK                            x       y       z     vdW  Elec       q    Type
REMARK                         _______ _______ _______ _____ _____    ______ ____
ROOT
ATOM      1  C   UNL     1      21.683   0.898  52.133  0.00  0.00    +0.000 A 
ATOM      2  C   UNL     1      21.766  -0.065  53.146  0.00  0.00    +0.000 A 
ATOM      3  F   UNL     1      20.667  -0.647  53.646  0.00  0.00    +0.000 F 
ATOM      4  C   UNL     1      22.976  -0.442  53.713  0.00  0.00    +0.000 A 
ATOM      5  C   UNL     1      24.165   0.158  53.292  0.00  0.00    +0.000 A 
ATOM      6  C   UNL     1      25.421  -0.299  53.934  0.00  0.00    +0.000 A 
ATOM      7  O   UNL     1      25.365  -1.062  54.892  0.00  0.00    +0.000 OA
ATOM      8  C   UNL     1      26.681   0.227  53.399  0.00  0.00    +0.000 A 
ATOM      9  C   UNL     1      26.596   1.210  52.487  0.00  0.00    +0.000 A 
ATOM     10  N   UNL     1      25.441   1.761  51.912  0.00  0.00    +0.000 N 
ATOM     11  C   UNL     1      24.178   1.146  52.289  0.00  0.00    +0.000 A 
ATOM     12  C   UNL     1      22.926   1.437  51.694  0.00  0.00    +0.000 A 
ATOM     13  F   UNL     1      22.885   2.208  50.595  0.00  0.00    +0.000 F 
ENDROOT
BRANCH  10  14
ATOM     14  C   UNL     1      25.594   2.912  51.050  0.00  0.00    +0.000 A 
ATOM     15  C   UNL     1      24.822   4.078  51.234  0.00  0.00    +0.000 A 
ATOM     16  C   UNL     1      24.968   5.200  50.406  0.00  0.00    +0.000 A 
ATOM     17  C   UNL     1      25.917   5.198  49.393  0.00  0.00    +0.000 A 
ATOM     18  C   UNL     1      26.682   4.058  49.175  0.00  0.00    +0.000 A 
ATOM     19  C   UNL     1      26.491   2.919  49.968  0.00  0.00    +0.000 A 
ENDBRANCH  10  14
BRANCH   1  23
ATOM     20  C   UNL     1      18.732   2.738  50.780  0.00  0.00    +0.000 C 
ATOM     21  C   UNL     1      19.040   1.617  49.782  0.00  0.00    +0.000 C 
ATOM     22  C   UNL     1      19.739   0.545  50.612  0.00  0.00    +0.000 C 
ATOM     23  N   UNL     1      20.479   1.321  51.597  0.00  0.00    +0.000 N 
ATOM     24  C   UNL     1      19.877   2.641  51.808  0.00  0.00    +0.000 C 
BRANCH  20  25
ATOM     25  C   UNL     1      17.325   2.592  51.378  0.00  0.00    +0.000 C 
BRANCH  25  26
ATOM     26  N   UNL     1      16.920   3.789  52.122  0.00  0.00    +0.000 N 
ATOM     27  H   UNL     1      17.022   3.600  53.119  0.00  0.00    +0.000 HD
ATOM     28  H   UNL     1      17.519   4.554  51.812  0.00  0.00    +0.000 HD
BRANCH  26  30
ATOM     29  C   UNL     1      15.146   4.215  50.389  0.00  0.00    +0.000 C 
ATOM     30  C   UNL     1      15.533   4.190  51.862  0.00  0.00    +0.000 C 
ENDBRANCH  26  30
ENDBRANCH  25  26
ENDBRANCH  20  25
ENDBRANCH   1  23
BRANCH   8  31
ATOM     31  C   UNL     1      28.016  -0.219  53.813  0.00  0.00    +0.000 C 
ATOM     32  O   UNL     1      28.681  -1.089  53.275  0.00  0.00    +0.000 OA
ATOM     33  O   UNL     1      28.451   0.371  54.943  0.00  0.00    +0.000 OA
ENDBRANCH   8  31
TORSDOF 6
ENDMDL
MODEL 7
REMARK VINA RESULT:    -8.391      1.926      4.641
REMARK INTER + INTRA:         -12.037
REMARK INTER:                 -11.072
REMARK INTRA:                  -0.966
REMARK UNBOUND:                -0.703
REMARK  Name = 
REMARK  7 active torsions:
REMARK  status: ('A' for Active; 'I' for Inactive)
REMARK    1  A    between atoms: C_1  and  C_2
REMARK    2  A    between atoms: C_2  and  N_3
REMARK    3  A    between atoms: N_3  and  C_4
REMARK    4  A    between atoms: C_4  and  C_5
REMARK    5  A    between atoms: N_8  and  C_9
REMARK    6  A    between atoms: C_16  and  C_17
REMARK    7  A    between atoms: N_21  and  C_22
REMARK                            x       y       z     vdW  Elec       q    Type
REMARK                         _______ _______ _______ _____ _____    ______ ____
ROOT
ATOM      1  C   UNL     1      25.473   3.199  51.109  0.00  0.00    +0.000 A 
ATOM      2  C   UNL     1      26.339   2.449  51.915  0.00  0.00    +0.000 A 
ATOM      3  F   UNL     1      27.658   2.688  51.933  0.00  0.00    +0.000 F 
ATOM      4  C   UNL     1      25.891   1.397  52.705  0.00  0.00    +0.000 A 
ATOM      5  C   UNL     1      24.540   1.042  52.699  0.00  0.00    +0.000 A 
ATOM      6  C   UNL     1      24.132  -0.083  53.574  0.00  0.00    +0.000 A 
ATOM      7  O   UNL     1      24.990  -0.745  54.146  0.00  0.00    +0.000 OA
ATOM      8  C   UNL     1      22.697  -0.369  53.676  0.00  0.00    +0.000 A 
ATOM      9  C   UNL     1      21.879   0.295  52.842  0.00  0.00    +0.000 A 
ATOM     10  N   UNL     1      22.211   1.297  51.918  0.00  0.00    +0.000 N 
ATOM     11  C   UNL     1      23.599   1.730  51.910  0.00  0.00    +0.000 A 
ATOM     12  C   UNL     1      24.098   2.839  51.184  0.00  0.00    +0.000 A 
ATOM     13  F   UNL     1      23.233   3.669  50.577  0.00  0.00    +0.000 F 
ENDROOT
BRANCH  10  14
ATOM     14  C   UNL     1      21.175   1.769  51.026  0.00  0.00    +0.000 A 
ATOM     15  C   UNL     1      20.188   2.680  51.461  0.00  0.00    +0.000 A 
ATOM     16  C   UNL     1      19.184   3.147  50.602  0.00  0.00    +0.000 A 
ATOM     17  C   UNL     1      19.160   2.742  49.274  0.00  0.00    +0.000 A 
ATOM     18  C   UNL     1      20.108   1.832  48.820  0.00  0.00    +0.000 A 
ATOM     19  C   UNL     1      21.074   1.324  49.697  0.00  0.00    +0.000 A 
ENDBRANCH  10  14
BRANCH   1  23
ATOM     20  C   UNL     1      26.783   5.366  48.368  0.00  0.00    +0.000 C 
ATOM     21  C   UNL     1      25.498   6.032  48.872  0.00  0.00    +0.000 C 
ATOM     22  C   UNL     1      25.362   5.560  50.317  0.00  0.00    +0.000 C 
ATOM     23  N   UNL     1      25.914   4.214  50.277  0.00  0.00    +0.000 N 
ATOM     24  C   UNL     1      26.849   4.046  49.161  0.00  0.00    +0.000 C 
BRANCH  20  25
ATOM     25  C   UNL     1      28.004   6.280  48.552  0.00  0.00    +0.000 C 
BRANCH  25  26
ATOM     26  N   UNL     1      29.154   5.553  49.098  0.00  0.00    +0.000 N 
ATOM     27  H   UNL     1      29.137   5.637  50.114  0.00  0.00    +0.000 HD
ATOM     28  H   UNL     1      29.072   4.584  48.791  0.00  0.00    +0.000 HD
BRANCH  26  30
ATOM     29  C   UNL     1      31.132   5.156  47.594  0.00  0.00    +0.000 C 
ATOM     30  C   UNL     1      30.442   6.058  48.610  0.00  0.00    +0.000 C 
ENDBRANCH  26  30
ENDBRANCH  25  26
ENDBRANCH  20  25
ENDBRANCH   1  23
BRANCH   8  31
ATOM     31  C   UNL     1      22.102  -1.346  54.595  0.00  0.00    +0.000 C 
ATOM     32  O   UNL     1      22.630  -1.805  55.595  0.00  0.00    +0.000 OA
ATOM     33  O   UNL     1      20.897  -1.794  54.194  0.00  0.00    +0.000 OA
ENDBRANCH   8  31
TORSDOF 6
ENDMDL
MODEL 8
REMARK VINA RESULT:    -8.275      3.201      6.700
REMARK INTER + INTRA:         -11.880
REMARK INTER:                 -10.471
REMARK INTRA:                  -1.410
REMARK UNBOUND:                -0.703
REMARK  Name = 
REMARK  7 active torsions:
REMARK  status: ('A' for Active; 'I' for Inactive)
REMARK    1  A    between atoms: C_1  and  C_2
REMARK    2  A    between atoms: C_2  and  N_3
REMARK    3  A    between atoms: N_3  and  C_4
REMARK    4  A    between atoms: C_4  and  C_5
REMARK    5  A    between atoms: N_8  and  C_9
REMARK    6  A    between atoms: C_16  and  C_17
REMARK    7  A    between atoms: N_21  and  C_22
REMARK                            x       y       z     vdW  Elec       q    Type
REMARK                         _______ _______ _______ _____ _____    ______ ____
ROOT
ATOM      1  C   UNL     1      23.582   0.685  52.902  0.00  0.00    +0.000 A 
ATOM      2  C   UNL     1      22.481  -0.167  53.045  0.00  0.00    +0.000 A 
ATOM      3  F   UNL     1      22.619  -1.412  53.524  0.00  0.00    +0.000 F 
ATOM      4  C   UNL     1      21.198   0.210  52.668  0.00  0.00    +0.000 A 
ATOM      5  C   UNL     1      20.974   1.468  52.104  0.00  0.00    +0.000 A 
ATOM      6  C   UNL     1      19.579   1.807  51.734  0.00  0.00    +0.000 A 
ATOM      7  O   UNL     1      18.712   0.943  51.794  0.00  0.00    +0.000 OA
ATOM      8  C   UNL     1      19.319   3.175  51.272  0.00  0.00    +0.000 A 
ATOM      9  C   UNL     1      20.386   3.962  51.056  0.00  0.00    +0.000 A 
ATOM     10  N   UNL     1      21.739   3.670  51.288  0.00  0.00    +0.000 N 
ATOM     11  C   UNL     1      22.023   2.386  51.908  0.00  0.00    +0.000 A 
ATOM     12  C   UNL     1      23.295   1.978  52.380  0.00  0.00    +0.000 A 
ATOM     13  F   UNL     1      24.297   2.872  52.421  0.00  0.00    +0.000 F 
ENDROOT
BRANCH  10  14
ATOM     14  C   UNL     1      22.726   4.630  50.845  0.00  0.00    +0.000 A 
ATOM     15  C   UNL     1      23.427   4.461  49.633  0.00  0.00    +0.000 A 
ATOM     16  C   UNL     1      24.381   5.389  49.194  0.00  0.00    +0.000 A 
ATOM     17  C   UNL     1      24.634   6.532  49.942  0.00  0.00    +0.000 A 
ATOM     18  C   UNL     1      23.972   6.720  51.149  0.00  0.00    +0.000 A 
ATOM     19  C   UNL     1      23.063   5.760  51.611  0.00  0.00    +0.000 A 
ENDBRANCH  10  14
BRANCH   1  23
ATOM     20  C   UNL     1      26.718  -0.779  54.297  0.00  0.00    +0.000 C 
ATOM     21  C   UNL     1      26.820  -0.906  52.772  0.00  0.00    +0.000 C 
ATOM     22  C   UNL     1      25.938   0.217  52.234  0.00  0.00    +0.000 C 
ATOM     23  N   UNL     1      24.873   0.303  53.223  0.00  0.00    +0.000 N 
ATOM     24  C   UNL     1      25.302  -0.215  54.526  0.00  0.00    +0.000 C 
BRANCH  20  25
ATOM     25  C   UNL     1      27.849   0.088  54.868  0.00  0.00    +0.000 C 
BRANCH  25  26
ATOM     26  N   UNL     1      29.102  -0.089  54.128  0.00  0.00    +0.000 N 
ATOM     27  H   UNL     1      29.814  -0.430  54.773  0.00  0.00    +0.000 HD
ATOM     28  H   UNL     1      28.917  -0.753  53.375  0.00  0.00    +0.000 HD
BRANCH  26  30
ATOM     29  C   UNL     1      28.684   2.357  53.713  0.00  0.00    +0.000 C 
ATOM     30  C   UNL     1      29.588   1.148  53.507  0.00  0.00    +0.000 C 
ENDBRANCH  26  30
ENDBRANCH  25  26
ENDBRANCH  20  25
ENDBRANCH   1  23
BRANCH   8  31
ATOM     31  C   UNL     1      17.987   3.726  50.999  0.00  0.00    +0.000 C 
ATOM     32  O   UNL     1      17.124   3.961  51.829  0.00  0.00    +0.000 OA
ATOM     33  O   UNL     1      17.731   3.885  49.686  0.00  0.00    +0.000 OA
ENDBRANCH   8  31
TORSDOF 6
ENDMDL
MODEL 9
REMARK VINA RESULT:    -8.221      2.360      5.317
REMARK INTER + INTRA:         -11.808
REMARK INTER:                 -10.197
REMARK INTRA:                  -1.611
REMARK UNBOUND:                -0.703
REMARK  Name = 
REMARK  7 active torsions:
REMARK  status: ('A' for Active; 'I' for Inactive)
REMARK    1  A    between atoms: C_1  and  C_2
REMARK    2  A    between atoms: C_2  and  N_3
REMARK    3  A    between atoms: N_3  and  C_4
REMARK    4  A    between atoms: C_4  and  C_5
REMARK    5  A    between atoms: N_8  and  C_9
REMARK    6  A    between atoms: C_16  and  C_17
REMARK    7  A    between atoms: N_21  and  C_22
REMARK                            x       y       z     vdW  Elec       q    Type
REMARK                         _______ _______ _______ _____ _____    ______ ____
ROOT
ATOM      1  C   UNL     1      24.963   3.421  51.002  0.00  0.00    +0.000 A 
ATOM      2  C   UNL     1      25.939   2.636  51.628  0.00  0.00    +0.000 A 
ATOM      3  F   UNL     1      27.246   2.885  51.462  0.00  0.00    +0.000 F 
ATOM      4  C   UNL     1      25.616   1.540  52.418  0.00  0.00    +0.000 A 
ATOM      5  C   UNL     1      24.279   1.174  52.595  0.00  0.00    +0.000 A 
ATOM      6  C   UNL     1      24.007  -0.000  53.458  0.00  0.00    +0.000 A 
ATOM      7  O   UNL     1      24.941  -0.684  53.859  0.00  0.00    +0.000 OA
ATOM      8  C   UNL     1      22.603  -0.303  53.758  0.00  0.00    +0.000 A 
ATOM      9  C   UNL     1      21.670   0.397  53.092  0.00  0.00    +0.000 A 
ATOM     10  N   UNL     1      21.860   1.450  52.185  0.00  0.00    +0.000 N 
ATOM     11  C   UNL     1      23.230   1.895  51.993  0.00  0.00    +0.000 A 
ATOM     12  C   UNL     1      23.614   3.045  51.262  0.00  0.00    +0.000 A 
ATOM     13  F   UNL     1      22.668   3.898  50.836  0.00  0.00    +0.000 F 
ENDROOT
BRANCH  10  14
ATOM     14  C   UNL     1      20.701   1.960  51.484  0.00  0.00    +0.000 A 
ATOM     15  C   UNL     1      19.832   2.896  52.083  0.00  0.00    +0.000 A 
ATOM     16  C   UNL     1      18.710   3.400  51.410  0.00  0.00    +0.000 A 
ATOM     17  C   UNL     1      18.448   3.006  50.104  0.00  0.00    +0.000 A 
ATOM     18  C   UNL     1      19.276   2.072  49.492  0.00  0.00    +0.000 A 
ATOM     19  C   UNL     1      20.362   1.528  50.190  0.00  0.00    +0.000 A 
ENDBRANCH  10  14
BRANCH   1  23
ATOM     20  C   UNL     1      25.782   6.691  49.402  0.00  0.00    +0.000 C 
ATOM     21  C   UNL     1      26.795   5.676  48.861  0.00  0.00    +0.000 C 
ATOM     22  C   UNL     1      26.086   4.329  48.971  0.00  0.00    +0.000 C 
ATOM     23  N   UNL     1      25.274   4.482  50.169  0.00  0.00    +0.000 N 
ATOM     24  C   UNL     1      24.983   5.891  50.450  0.00  0.00    +0.000 C 
BRANCH  20  25
ATOM     25  C   UNL     1      24.929   7.293  48.275  0.00  0.00    +0.000 C 
BRANCH  25  26
ATOM     26  N   UNL     1      23.515   6.932  48.407  0.00  0.00    +0.000 N 
ATOM     27  H   UNL     1      23.396   6.399  49.269  0.00  0.00    +0.000 HD
ATOM     28  H   UNL     1      22.980   7.800  48.416  0.00  0.00    +0.000 HD
BRANCH  26  30
ATOM     29  C   UNL     1      22.502   4.746  47.680  0.00  0.00    +0.000 C 
ATOM     30  C   UNL     1      23.016   6.125  47.288  0.00  0.00    +0.000 C 
ENDBRANCH  26  30
ENDBRANCH  25  26
ENDBRANCH  20  25
ENDBRANCH   1  23
BRANCH   8  31
ATOM     31  C   UNL     1      22.153  -1.333  54.702  0.00  0.00    +0.000 C 
ATOM     32  O   UNL     1      22.805  -1.798  55.622  0.00  0.00    +0.000 OA
ATOM     33  O   UNL     1      20.931  -1.823  54.416  0.00  0.00    +0.000 OA
ENDBRANCH   8  31
TORSDOF 6
ENDMDL
