MODEL 1
REMARK VINA RESULT:    -7.829      0.000      0.000
REMARK INTER + INTRA:         -13.646
REMARK INTER:                 -11.491
REMARK INTRA:                  -2.155
REMARK UNBOUND:                -2.155
REMARK  Name = 
REMARK  10 active torsions:
REMARK  status: ('A' for Active; 'I' for Inactive)
REMARK    1  A    between atoms: C_1  and  C_2
REMARK    2  A    between atoms: C_2  and  C_3
REMARK    3  A    between atoms: C_3  and  C_4
REMARK    4  A    between atoms: C_5  and  C_6
REMARK    5  A    between atoms: C_6  and  N_7
REMARK    6  A    between atoms: C_9  and  C_10
REMARK    7  A    between atoms: C_19  and  C_20
REMARK    8  A    between atoms: C_23  and  C_24
REMARK    9  A    between atoms: C_27  and  O_28
REMARK   10  A    between atoms: O_28  and  C_29
REMARK                            x       y       z     vdW  Elec       q    Type
REMARK                         _______ _______ _______ _____ _____    ______ ____
ROOT
ATOM      1  N   UNL     1      22.810   3.262  52.255  0.00  0.00    +0.000 N 
ATOM      2  C   UNL     1      23.220   4.519  51.599  0.00  0.00    +0.000 C 
ATOM      3  C   UNL     1      22.993   4.235  50.125  0.00  0.00    +0.000 C 
ATOM      4  C   UNL     1      23.479   2.790  49.973  0.00  0.00    +0.000 C 
ATOM      5  C   UNL     1      23.202   2.153  51.333  0.00  0.00    +0.000 C 
ATOM      6  H   UNL     1      23.259   3.150  53.164  0.00  0.00    +0.000 HD
ENDROOT
BRANCH   3   7
ATOM      7  C   UNL     1      23.653   5.117  49.099  0.00  0.00    +0.000 A 
ATOM      8  C   UNL     1      22.912   6.028  48.312  0.00  0.00    +0.000 A 
ATOM      9  C   UNL     1      23.555   7.098  47.679  0.00  0.00    +0.000 A 
ATOM     10  C   UNL     1      24.917   7.205  47.833  0.00  0.00    +0.000 A 
ATOM     11  C   UNL     1      25.646   6.263  48.519  0.00  0.00    +0.000 A 
ATOM     12  C   UNL     1      25.054   5.204  49.141  0.00  0.00    +0.000 A 
ATOM     13  O   UNL     1      26.970   6.570  48.587  0.00  0.00    +0.000 OA
ATOM     14  C   UNL     1      26.981   7.840  47.911  0.00  0.00    +0.000 C 
ATOM     15  O   UNL     1      25.690   8.236  47.400  0.00  0.00    +0.000 OA
ENDBRANCH   3   7
BRANCH   5  16
ATOM     16  C   UNL     1      24.415   1.423  51.896  0.00  0.00    +0.000 A 
ATOM     17  C   UNL     1      25.715   1.748  51.486  0.00  0.00    +0.000 A 
ATOM     18  C   UNL     1      26.828   1.116  52.032  0.00  0.00    +0.000 A 
ATOM     19  C   UNL     1      26.665   0.131  53.003  0.00  0.00    +0.000 A 
ATOM     20  C   UNL     1      25.375  -0.212  53.413  0.00  0.00    +0.000 A 
ATOM     21  C   UNL     1      24.258   0.427  52.868  0.00  0.00    +0.000 A 
BRANCH  19  22
ATOM     22  O   UNL     1      27.681  -0.553  53.612  0.00  0.00    +0.000 OA
ATOM     23  C   UNL     1      28.325   0.117  54.690  0.00  0.00    +0.000 C 
ENDBRANCH  19  22
ENDBRANCH   5  16
BRANCH   4  24
ATOM     24  C   UNL     1      22.746   2.072  48.873  0.00  0.00    +0.000 C 
ATOM     25  O   UNL     1      22.854   2.260  47.673  0.00  0.00    +0.000 OA
ATOM     26  O   UNL     1      21.897   1.138  49.343  0.00  0.00    +0.000 OA
ENDBRANCH   4  24
BRANCH   1  27
ATOM     27  C   UNL     1      21.362   3.262  52.481  0.00  0.00    +0.000 C 
BRANCH  27  29
ATOM     28  C   UNL     1      20.476   0.682  53.212  0.00  0.00    +0.000 C 
ATOM     29  C   UNL     1      20.885   1.873  52.875  0.00  0.00    +0.000 C 
BRANCH  28  30
ATOM     30  C   UNL     1      20.025  -0.668  53.602  0.00  0.00    +0.000 C 
BRANCH  30  32
ATOM     31  C   UNL     1      22.045  -0.957  55.122  0.00  0.00    +0.000 C 
ATOM     32  C   UNL     1      21.209  -1.554  53.997  0.00  0.00    +0.000 C 
ENDBRANCH  30  32
ENDBRANCH  28  30
ENDBRANCH  27  29
ENDBRANCH   1  27
TORSDOF 8
ENDMDL
MODEL 2
REMARK VINA RESULT:    -7.798      1.683      2.398
REMARK INTER + INTRA:         -13.599
REMARK INTER:                 -11.260
REMARK INTRA:                  -2.339
REMARK UNBOUND:                -2.155
REMARK  Name = 
REMARK  10 active torsions:
REMARK  status: ('A' for Active; 'I' for Inactive)
REMARK    1  A    between atoms: C_1  and  C_2
REMARK    2  A    between atoms: C_2  and  C_3
REMARK    3  A    between atoms: C_3  and  C_4
REMARK    4  A    between atoms: C_5  and  C_6
REMARK    5  A    between atoms: C_6  and  N_7
REMARK    6  A    between atoms: C_9  and  C_10
REMARK    7  A    between atoms: C_19  and  C_20
REMARK    8  A    between atoms: C_23  and  C_24
REMARK    9  A    between atoms: C_27  and  O_28
REMARK   10  A    between atoms: O_28  and  C_29
REMARK                            x       y       z     vdW  Elec       q    Type
REMARK                         _______ _______ _______ _____ _____    ______ ____
ROOT
ATOM      1  N   UNL     1      23.205   4.349  52.090  0.00  0.00    +0.000 N 
ATOM      2  C   UNL     1      24.154   5.317  51.507  0.00  0.00    +0.000 C 
ATOM      3  C   UNL     1      23.980   5.119  50.011  0.00  0.00    +0.000 C 
ATOM      4  C   UNL     1      23.851   3.598  49.878  0.00  0.00    +0.000 C 
ATOM      5  C   UNL     1      23.203   3.158  51.189  0.00  0.00    +0.000 C 
ATOM      6  H   UNL     1      23.476   4.084  53.038  0.00  0.00    +0.000 HD
ENDROOT
BRANCH   3   7
ATOM      7  C   UNL     1      25.042   5.635  49.076  0.00  0.00    +0.000 A 
ATOM      8  C   UNL     1      24.945   6.909  48.470  0.00  0.00    +0.000 A 
ATOM      9  C   UNL     1      26.086   7.530  47.950  0.00  0.00    +0.000 A 
ATOM     10  C   UNL     1      27.278   6.848  48.032  0.00  0.00    +0.000 A 
ATOM     11  C   UNL     1      27.349   5.571  48.534  0.00  0.00    +0.000 A 
ATOM     12  C   UNL     1      26.256   4.932  49.041  0.00  0.00    +0.000 A 
ATOM     13  O   UNL     1      28.620   5.086  48.561  0.00  0.00    +0.000 OA
ATOM     14  C   UNL     1      29.347   6.225  48.066  0.00  0.00    +0.000 C 
ATOM     15  O   UNL     1      28.501   7.336  47.696  0.00  0.00    +0.000 OA
ENDBRANCH   3   7
BRANCH   5  16
ATOM     16  C   UNL     1      23.951   2.010  51.854  0.00  0.00    +0.000 A 
ATOM     17  C   UNL     1      23.300   1.121  52.721  0.00  0.00    +0.000 A 
ATOM     18  C   UNL     1      23.970   0.045  53.294  0.00  0.00    +0.000 A 
ATOM     19  C   UNL     1      25.318  -0.166  53.018  0.00  0.00    +0.000 A 
ATOM     20  C   UNL     1      25.984   0.717  52.166  0.00  0.00    +0.000 A 
ATOM     21  C   UNL     1      25.309   1.796  51.587  0.00  0.00    +0.000 A 
BRANCH  19  22
ATOM     22  O   UNL     1      26.076  -1.189  53.518  0.00  0.00    +0.000 OA
ATOM     23  C   UNL     1      26.848  -1.916  52.569  0.00  0.00    +0.000 C 
ENDBRANCH  19  22
ENDBRANCH   5  16
BRANCH   4  24
ATOM     24  C   UNL     1      23.004   3.218  48.694  0.00  0.00    +0.000 C 
ATOM     25  O   UNL     1      23.119   2.225  47.996  0.00  0.00    +0.000 OA
ATOM     26  O   UNL     1      22.036   4.119  48.442  0.00  0.00    +0.000 OA
ENDBRANCH   4  24
BRANCH   1  27
ATOM     27  C   UNL     1      21.867   4.943  52.169  0.00  0.00    +0.000 C 
BRANCH  27  29
ATOM     28  C   UNL     1      19.884   2.951  51.887  0.00  0.00    +0.000 C 
ATOM     29  C   UNL     1      20.800   3.870  52.017  0.00  0.00    +0.000 C 
BRANCH  28  30
ATOM     30  C   UNL     1      18.850   1.911  51.725  0.00  0.00    +0.000 C 
BRANCH  30  32
ATOM     31  C   UNL     1      20.531   0.789  50.181  0.00  0.00    +0.000 C 
ATOM     32  C   UNL     1      19.461   0.593  51.246  0.00  0.00    +0.000 C 
ENDBRANCH  30  32
ENDBRANCH  28  30
ENDBRANCH  27  29
ENDBRANCH   1  27
TORSDOF 8
ENDMDL
MODEL 3
REMARK VINA RESULT:    -7.735      2.624      7.243
REMARK INTER + INTRA:         -13.507
REMARK INTER:                 -11.639
REMARK INTRA:                  -1.868
REMARK UNBOUND:                -2.155
REMARK  Name = 
REMARK  10 active torsions:
REMARK  status: ('A' for Active; 'I' for Inactive)
REMARK    1  A    between atoms: C_1  and  C_2
REMARK    2  A    between atoms: C_2  and  C_3
REMARK    3  A    between atoms: C_3  and  C_4
REMARK    4  A    between atoms: C_5  and  C_6
REMARK    5  A    between atoms: C_6  and  N_7
REMARK    6  A    between atoms: C_9  and  C_10
REMARK    7  A    between atoms: C_19  and  C_20
REMARK    8  A    between atoms: C_23  and  C_24
REMARK    9  A    between atoms: C_27  and  O_28
REMARK   10  A    between atoms: O_28  and  C_29
REMARK                            x       y       z     vdW  Elec       q    Type
REMARK                         _______ _______ _______ _____ _____    ______ ____
ROOT
ATOM      1  N   UNL     1      22.741   1.641  49.547  0.00  0.00    +0.000 N 
ATOM      2  C   UNL     1      21.521   0.820  49.665  0.00  0.00    +0.000 C 
ATOM      3  C   UNL     1      20.630   1.644  50.578  0.00  0.00    +0.000 C 
ATOM      4  C   UNL     1      21.613   2.182  51.624  0.00  0.00    +0.000 C 
ATOM      5  C   UNL     1      22.935   2.308  50.870  0.00  0.00    +0.000 C 
ATOM      6  H   UNL     1      23.553   1.073  49.307  0.00  0.00    +0.000 HD
ENDROOT
BRANCH   3   7
ATOM      7  C   UNL     1      19.461   0.980  51.255  0.00  0.00    +0.000 A 
ATOM      8  C   UNL     1      18.184   0.924  50.651  0.00  0.00    +0.000 A 
ATOM      9  C   UNL     1      17.242  -0.018  51.081  0.00  0.00    +0.000 A 
ATOM     10  C   UNL     1      17.600  -0.853  52.115  0.00  0.00    +0.000 A 
ATOM     11  C   UNL     1      18.806  -0.730  52.762  0.00  0.00    +0.000 A 
ATOM     12  C   UNL     1      19.744   0.182  52.376  0.00  0.00    +0.000 A 
ATOM     13  O   UNL     1      18.981  -1.670  53.730  0.00  0.00    +0.000 OA
ATOM     14  C   UNL     1      17.769  -2.431  53.581  0.00  0.00    +0.000 C 
ATOM     15  O   UNL     1      16.871  -1.901  52.582  0.00  0.00    +0.000 OA
ENDBRANCH   3   7
BRANCH   5  16
ATOM     16  C   UNL     1      24.095   1.653  51.609  0.00  0.00    +0.000 A 
ATOM     17  C   UNL     1      23.873   0.722  52.634  0.00  0.00    +0.000 A 
ATOM     18  C   UNL     1      24.929   0.087  53.278  0.00  0.00    +0.000 A 
ATOM     19  C   UNL     1      26.243   0.374  52.916  0.00  0.00    +0.000 A 
ATOM     20  C   UNL     1      26.481   1.308  51.905  0.00  0.00    +0.000 A 
ATOM     21  C   UNL     1      25.418   1.942  51.254  0.00  0.00    +0.000 A 
BRANCH  19  22
ATOM     22  O   UNL     1      27.357  -0.189  53.475  0.00  0.00    +0.000 OA
ATOM     23  C   UNL     1      27.642   0.191  54.817  0.00  0.00    +0.000 C 
ENDBRANCH  19  22
ENDBRANCH   5  16
BRANCH   4  24
ATOM     24  C   UNL     1      21.166   3.510  52.171  0.00  0.00    +0.000 C 
ATOM     25  O   UNL     1      20.019   3.899  52.311  0.00  0.00    +0.000 OA
ATOM     26  O   UNL     1      22.200   4.297  52.522  0.00  0.00    +0.000 OA
ENDBRANCH   4  24
BRANCH   1  27
ATOM     27  C   UNL     1      22.575   2.637  48.484  0.00  0.00    +0.000 C 
BRANCH  27  29
ATOM     28  C   UNL     1      24.251   4.863  48.945  0.00  0.00    +0.000 C 
ATOM     29  C   UNL     1      23.477   3.835  48.732  0.00  0.00    +0.000 C 
BRANCH  28  30
ATOM     30  C   UNL     1      25.127   6.028  49.172  0.00  0.00    +0.000 C 
BRANCH  30  32
ATOM     31  C   UNL     1      27.046   4.361  49.069  0.00  0.00    +0.000 C 
ATOM     32  C   UNL     1      26.553   5.750  48.689  0.00  0.00    +0.000 C 
ENDBRANCH  30  32
ENDBRANCH  28  30
ENDBRANCH  27  29
ENDBRANCH   1  27
TORSDOF 8
ENDMDL
MODEL 4
REMARK VINA RESULT:    -7.625      2.578      6.277
REMARK INTER + INTRA:         -13.345
REMARK INTER:                 -11.676
REMARK INTRA:                  -1.670
REMARK UNBOUND:                -2.155
REMARK  Name = 
REMARK  10 active torsions:
REMARK  status: ('A' for Active; 'I' for Inactive)
REMARK    1  A    between atoms: C_1  and  C_2
REMARK    2  A    between atoms: C_2  and  C_3
REMARK    3  A    between atoms: C_3  and  C_4
REMARK    4  A    between atoms: C_5  and  C_6
REMARK    5  A    between atoms: C_6  and  N_7
REMARK    6  A    between atoms: C_9  and  C_10
REMARK    7  A    between atoms: C_19  and  C_20
REMARK    8  A    between atoms: C_23  and  C_24
REMARK    9  A    between atoms: C_27  and  O_28
REMARK   10  A    between atoms: O_28  and  C_29
REMARK                            x       y       z     vdW  Elec       q    Type
REMARK                         _______ _______ _______ _____ _____    ______ ____
ROOT
ATOM      1  N   UNL     1      24.571   3.800  52.348  0.00  0.00    +0.000 N 
ATOM      2  C   UNL     1      23.272   4.460  52.582  0.00  0.00    +0.000 C 
ATOM      3  C   UNL     1      22.316   3.672  51.704  0.00  0.00    +0.000 C 
ATOM      4  C   UNL     1      23.134   3.435  50.430  0.00  0.00    +0.000 C 
ATOM      5  C   UNL     1      24.580   3.374  50.916  0.00  0.00    +0.000 C 
ATOM      6  H   UNL     1      25.350   4.430  52.542  0.00  0.00    +0.000 HD
ENDROOT
BRANCH   3   7
ATOM      7  C   UNL     1      20.977   4.269  51.360  0.00  0.00    +0.000 A 
ATOM      8  C   UNL     1      20.847   5.308  50.410  0.00  0.00    +0.000 A 
ATOM      9  C   UNL     1      19.607   5.564  49.812  0.00  0.00    +0.000 A 
ATOM     10  C   UNL     1      18.538   4.792  50.202  0.00  0.00    +0.000 A 
ATOM     11  C   UNL     1      18.649   3.849  51.196  0.00  0.00    +0.000 A 
ATOM     12  C   UNL     1      19.839   3.578  51.806  0.00  0.00    +0.000 A 
ATOM     13  O   UNL     1      17.489   3.170  51.408  0.00  0.00    +0.000 OA
ATOM     14  C   UNL     1      16.651   3.759  50.398  0.00  0.00    +0.000 C 
ATOM     15  O   UNL     1      17.296   4.812  49.650  0.00  0.00    +0.000 OA
ENDBRANCH   3   7
BRANCH   5  16
ATOM     16  C   UNL     1      25.505   4.283  50.117  0.00  0.00    +0.000 A 
ATOM     17  C   UNL     1      26.684   3.794  49.536  0.00  0.00    +0.000 A 
ATOM     18  C   UNL     1      27.506   4.610  48.766  0.00  0.00    +0.000 A 
ATOM     19  C   UNL     1      27.171   5.947  48.563  0.00  0.00    +0.000 A 
ATOM     20  C   UNL     1      26.007   6.452  49.145  0.00  0.00    +0.000 A 
ATOM     21  C   UNL     1      25.178   5.630  49.914  0.00  0.00    +0.000 A 
BRANCH  19  22
ATOM     22  O   UNL     1      27.898   6.839  47.825  0.00  0.00    +0.000 OA
ATOM     23  C   UNL     1      28.273   8.040  48.491  0.00  0.00    +0.000 C 
ENDBRANCH  19  22
ENDBRANCH   5  16
BRANCH   4  24
ATOM     24  C   UNL     1      22.732   2.158  49.745  0.00  0.00    +0.000 C 
ATOM     25  O   UNL     1      22.635   1.966  48.545  0.00  0.00    +0.000 OA
ATOM     26  O   UNL     1      22.466   1.167  50.617  0.00  0.00    +0.000 OA
ENDBRANCH   4  24
BRANCH   1  27
ATOM     27  C   UNL     1      24.714   2.642  53.235  0.00  0.00    +0.000 C 
BRANCH  27  29
ATOM     28  C   UNL     1      27.431   1.912  53.476  0.00  0.00    +0.000 C 
ATOM     29  C   UNL     1      26.176   2.249  53.364  0.00  0.00    +0.000 C 
BRANCH  28  30
ATOM     30  C   UNL     1      28.847   1.516  53.605  0.00  0.00    +0.000 C 
BRANCH  30  32
ATOM     31  C   UNL     1      29.607  -0.911  53.553  0.00  0.00    +0.000 C 
ATOM     32  C   UNL     1      28.986   0.205  54.382  0.00  0.00    +0.000 C 
ENDBRANCH  30  32
ENDBRANCH  28  30
ENDBRANCH  27  29
ENDBRANCH   1  27
TORSDOF 8
ENDMDL
MODEL 5
REMARK VINA RESULT:    -7.557      2.441      7.662
REMARK INTER + INTRA:         -13.246
REMARK INTER:                 -11.063
REMARK INTRA:                  -2.183
REMARK UNBOUND:                -2.155
REMARK  Name = 
REMARK  10 active torsions:
REMARK  status: ('A' for Active; 'I' for Inactive)
REMARK    1  A    between atoms: C_1  and  C_2
REMARK    2  A    between atoms: C_2  and  C_3
REMARK    3  A    between atoms: C_3  and  C_4
REMARK    4  A    between atoms: C_5  and  C_6
REMARK    5  A    between atoms: C_6  and  N_7
REMARK    6  A    between atoms: C_9  and  C_10
REMARK    7  A    between atoms: C_19  and  C_20
REMARK    8  A    between atoms: C_23  and  C_24
REMARK    9  A    between atoms: C_27  and  O_28
REMARK   10  A    between atoms: O_28  and  C_29
REMARK                            x       y       z     vdW  Elec       q    Type
REMARK                         _______ _______ _______ _____ _____    ______ ____
ROOT
ATOM      1  N   UNL     1      23.147   4.076  48.606  0.00  0.00    +0.000 N 
ATOM      2  C   UNL     1      23.093   2.663  49.029  0.00  0.00    +0.000 C 
ATOM      3  C   UNL     1      22.903   2.755  50.533  0.00  0.00    +0.000 C 
ATOM      4  C   UNL     1      23.827   3.912  50.927  0.00  0.00    +0.000 C 
ATOM      5  C   UNL     1      23.835   4.823  49.702  0.00  0.00    +0.000 C 
ATOM      6  H   UNL     1      23.649   4.184  47.724  0.00  0.00    +0.000 HD
ENDROOT
BRANCH   3   7
ATOM      7  C   UNL     1      23.191   1.546  51.382  0.00  0.00    +0.000 A 
ATOM      8  C   UNL     1      24.474   1.304  51.923  0.00  0.00    +0.000 A 
ATOM      9  C   UNL     1      24.629   0.435  53.009  0.00  0.00    +0.000 A 
ATOM     10  C   UNL     1      23.501  -0.180  53.501  0.00  0.00    +0.000 A 
ATOM     11  C   UNL     1      22.270  -0.016  52.911  0.00  0.00    +0.000 A 
ATOM     12  C   UNL     1      22.085   0.816  51.846  0.00  0.00    +0.000 A 
ATOM     13  O   UNL     1      21.280  -0.679  53.567  0.00  0.00    +0.000 OA
ATOM     14  C   UNL     1      22.020  -1.236  54.668  0.00  0.00    +0.000 C 
ATOM     15  O   UNL     1      23.436  -0.953  54.617  0.00  0.00    +0.000 OA
ENDBRANCH   3   7
BRANCH   5  16
ATOM     16  C   UNL     1      25.245   5.196  49.260  0.00  0.00    +0.000 A 
ATOM     17  C   UNL     1      26.284   4.255  49.269  0.00  0.00    +0.000 A 
ATOM     18  C   UNL     1      27.561   4.579  48.822  0.00  0.00    +0.000 A 
ATOM     19  C   UNL     1      27.833   5.864  48.359  0.00  0.00    +0.000 A 
ATOM     20  C   UNL     1      26.812   6.816  48.355  0.00  0.00    +0.000 A 
ATOM     21  C   UNL     1      25.528   6.488  48.799  0.00  0.00    +0.000 A 
BRANCH  19  22
ATOM     22  O   UNL     1      29.045   6.295  47.894  0.00  0.00    +0.000 OA
ATOM     23  C   UNL     1      30.123   5.373  48.014  0.00  0.00    +0.000 C 
ENDBRANCH  19  22
ENDBRANCH   5  16
BRANCH   4  24
ATOM     24  C   UNL     1      23.317   4.636  52.144  0.00  0.00    +0.000 C 
ATOM     25  O   UNL     1      23.818   4.648  53.255  0.00  0.00    +0.000 OA
ATOM     26  O   UNL     1      22.184   5.321  51.899  0.00  0.00    +0.000 OA
ENDBRANCH   4  24
BRANCH   1  27
ATOM     27  C   UNL     1      21.790   4.591  48.400  0.00  0.00    +0.000 C 
BRANCH  27  29
ATOM     28  C   UNL     1      21.770   7.411  48.553  0.00  0.00    +0.000 C 
ATOM     29  C   UNL     1      21.779   6.109  48.483  0.00  0.00    +0.000 C 
BRANCH  28  30
ATOM     30  C   UNL     1      21.755   8.885  48.619  0.00  0.00    +0.000 C 
BRANCH  30  32
ATOM     31  C   UNL     1      23.629   9.060  46.908  0.00  0.00    +0.000 C 
ATOM     32  C   UNL     1      23.131   9.468  48.287  0.00  0.00    +0.000 C 
ENDBRANCH  30  32
ENDBRANCH  28  30
ENDBRANCH  27  29
ENDBRANCH   1  27
TORSDOF 8
ENDMDL
MODEL 6
REMARK VINA RESULT:    -7.278      2.260      5.243
REMARK INTER + INTRA:         -12.837
REMARK INTER:                 -11.243
REMARK INTRA:                  -1.594
REMARK UNBOUND:                -2.155
REMARK  Name = 
REMARK  10 active torsions:
REMARK  status: ('A' for Active; 'I' for Inactive)
REMARK    1  A    between atoms: C_1  and  C_2
REMARK    2  A    between atoms: C_2  and  C_3
REMARK    3  A    between atoms: C_3  and  C_4
REMARK    4  A    between atoms: C_5  and  C_6
REMARK    5  A    between atoms: C_6  and  N_7
REMARK    6  A    between atoms: C_9  and  C_10
REMARK    7  A    between atoms: C_19  and  C_20
REMARK    8  A    between atoms: C_23  and  C_24
REMARK    9  A    between atoms: C_27  and  O_28
REMARK   10  A    between atoms: O_28  and  C_29
REMARK                            x       y       z     vdW  Elec       q    Type
REMARK                         _______ _______ _______ _____ _____    ______ ____
ROOT
ATOM      1  N   UNL     1      24.428   1.199  52.480  0.00  0.00    +0.000 N 
ATOM      2  C   UNL     1      24.835   1.676  51.144  0.00  0.00    +0.000 C 
ATOM      3  C   UNL     1      24.566   3.169  51.208  0.00  0.00    +0.000 C 
ATOM      4  C   UNL     1      23.237   3.247  51.968  0.00  0.00    +0.000 C 
ATOM      5  C   UNL     1      23.258   2.032  52.892  0.00  0.00    +0.000 C 
ATOM      6  H   UNL     1      24.179   0.210  52.464  0.00  0.00    +0.000 HD
ENDROOT
BRANCH   3   7
ATOM      7  C   UNL     1      24.480   3.954  49.926  0.00  0.00    +0.000 A 
ATOM      8  C   UNL     1      23.293   4.000  49.160  0.00  0.00    +0.000 A 
ATOM      9  C   UNL     1      23.098   5.024  48.225  0.00  0.00    +0.000 A 
ATOM     10  C   UNL     1      24.104   5.949  48.072  0.00  0.00    +0.000 A 
ATOM     11  C   UNL     1      25.295   5.844  48.749  0.00  0.00    +0.000 A 
ATOM     12  C   UNL     1      25.523   4.855  49.661  0.00  0.00    +0.000 A 
ATOM     13  O   UNL     1      26.143   6.875  48.486  0.00  0.00    +0.000 OA
ATOM     14  C   UNL     1      25.327   7.668  47.605  0.00  0.00    +0.000 C 
ATOM     15  O   UNL     1      24.045   7.072  47.309  0.00  0.00    +0.000 OA
ENDBRANCH   3   7
BRANCH   5  16
ATOM     16  C   UNL     1      21.982   1.205  52.799  0.00  0.00    +0.000 A 
ATOM     17  C   UNL     1      21.579   0.366  53.848  0.00  0.00    +0.000 A 
ATOM     18  C   UNL     1      20.391  -0.354  53.786  0.00  0.00    +0.000 A 
ATOM     19  C   UNL     1      19.575  -0.260  52.661  0.00  0.00    +0.000 A 
ATOM     20  C   UNL     1      19.968   0.561  51.602  0.00  0.00    +0.000 A 
ATOM     21  C   UNL     1      21.160   1.290  51.668  0.00  0.00    +0.000 A 
BRANCH  19  22
ATOM     22  O   UNL     1      18.387  -0.916  52.490  0.00  0.00    +0.000 OA
ATOM     23  C   UNL     1      17.381  -0.209  51.773  0.00  0.00    +0.000 C 
ENDBRANCH  19  22
ENDBRANCH   5  16
BRANCH   4  24
ATOM     24  C   UNL     1      23.122   4.527  52.750  0.00  0.00    +0.000 C 
ATOM     25  O   UNL     1      23.839   4.898  53.663  0.00  0.00    +0.000 OA
ATOM     26  O   UNL     1      22.094   5.293  52.337  0.00  0.00    +0.000 OA
ENDBRANCH   4  24
BRANCH   1  27
ATOM     27  C   UNL     1      25.535   1.355  53.428  0.00  0.00    +0.000 C 
BRANCH  27  29
ATOM     28  C   UNL     1      27.402  -0.741  53.119  0.00  0.00    +0.000 C 
ATOM     29  C   UNL     1      26.540   0.227  53.262  0.00  0.00    +0.000 C 
BRANCH  28  30
ATOM     30  C   UNL     1      28.378  -1.834  52.944  0.00  0.00    +0.000 C 
BRANCH  30  32
ATOM     31  C   UNL     1      30.123  -0.099  53.591  0.00  0.00    +0.000 C 
ATOM     32  C   UNL     1      29.672  -1.548  53.710  0.00  0.00    +0.000 C 
ENDBRANCH  30  32
ENDBRANCH  28  30
ENDBRANCH  27  29
ENDBRANCH   1  27
TORSDOF 8
ENDMDL
MODEL 7
REMARK VINA RESULT:    -7.055      2.406      5.312
REMARK INTER + INTRA:         -12.509
REMARK INTER:                 -11.261
REMARK INTRA:                  -1.248
REMARK UNBOUND:                -2.155
REMARK  Name = 
REMARK  10 active torsions:
REMARK  status: ('A' for Active; 'I' for Inactive)
REMARK    1  A    between atoms: C_1  and  C_2
REMARK    2  A    between atoms: C_2  and  C_3
REMARK    3  A    between atoms: C_3  and  C_4
REMARK    4  A    between atoms: C_5  and  C_6
REMARK    5  A    between atoms: C_6  and  N_7
REMARK    6  A    between atoms: C_9  and  C_10
REMARK    7  A    between atoms: C_19  and  C_20
REMARK    8  A    between atoms: C_23  and  C_24
REMARK    9  A    between atoms: C_27  and  O_28
REMARK   10  A    between atoms: O_28  and  C_29
REMARK                            x       y       z     vdW  Elec       q    Type
REMARK                         _______ _______ _______ _____ _____    ______ ____
ROOT
ATOM      1  N   UNL     1      23.625   1.201  52.045  0.00  0.00    +0.000 N 
ATOM      2  C   UNL     1      24.549   1.653  50.987  0.00  0.00    +0.000 C 
ATOM      3  C   UNL     1      24.543   3.164  51.139  0.00  0.00    +0.000 C 
ATOM      4  C   UNL     1      23.069   3.476  51.419  0.00  0.00    +0.000 C 
ATOM      5  C   UNL     1      22.552   2.236  52.144  0.00  0.00    +0.000 C 
ATOM      6  H   UNL     1      23.227   0.287  51.829  0.00  0.00    +0.000 HD
ENDROOT
BRANCH   3   7
ATOM      7  C   UNL     1      25.049   4.016  50.006  0.00  0.00    +0.000 A 
ATOM      8  C   UNL     1      24.297   5.098  49.494  0.00  0.00    +0.000 A 
ATOM      9  C   UNL     1      24.925   6.103  48.749  0.00  0.00    +0.000 A 
ATOM     10  C   UNL     1      26.276   5.979  48.522  0.00  0.00    +0.000 A 
ATOM     11  C   UNL     1      26.984   4.877  48.939  0.00  0.00    +0.000 A 
ATOM     12  C   UNL     1      26.402   3.875  49.659  0.00  0.00    +0.000 A 
ATOM     13  O   UNL     1      28.310   4.963  48.648  0.00  0.00    +0.000 OA
ATOM     14  C   UNL     1      28.364   6.269  48.046  0.00  0.00    +0.000 C 
ATOM     15  O   UNL     1      27.074   6.908  47.931  0.00  0.00    +0.000 OA
ENDBRANCH   3   7
BRANCH   5  16
ATOM     16  C   UNL     1      21.263   1.697  51.535  0.00  0.00    +0.000 A 
ATOM     17  C   UNL     1      20.858   2.065  50.244  0.00  0.00    +0.000 A 
ATOM     18  C   UNL     1      19.707   1.538  49.667  0.00  0.00    +0.000 A 
ATOM     19  C   UNL     1      18.924   0.630  50.374  0.00  0.00    +0.000 A 
ATOM     20  C   UNL     1      19.308   0.262  51.665  0.00  0.00    +0.000 A 
ATOM     21  C   UNL     1      20.468   0.787  52.243  0.00  0.00    +0.000 A 
BRANCH  19  22
ATOM     22  O   UNL     1      17.778   0.046  49.909  0.00  0.00    +0.000 OA
ATOM     23  C   UNL     1      16.664   0.913  49.731  0.00  0.00    +0.000 C 
ENDBRANCH  19  22
ENDBRANCH   5  16
BRANCH   4  24
ATOM     24  C   UNL     1      22.917   4.709  52.268  0.00  0.00    +0.000 C 
ATOM     25  O   UNL     1      22.098   5.602  52.127  0.00  0.00    +0.000 OA
ATOM     26  O   UNL     1      23.815   4.760  53.269  0.00  0.00    +0.000 OA
ENDBRANCH   4  24
BRANCH   1  27
ATOM     27  C   UNL     1      24.342   1.074  53.318  0.00  0.00    +0.000 C 
BRANCH  27  29
ATOM     28  C   UNL     1      26.523  -0.699  53.050  0.00  0.00    +0.000 C 
ATOM     29  C   UNL     1      25.516   0.120  53.174  0.00  0.00    +0.000 C 
BRANCH  28  30
ATOM     30  C   UNL     1      27.669  -1.618  52.899  0.00  0.00    +0.000 C 
BRANCH  30  32
ATOM     31  C   UNL     1      28.799  -0.097  54.598  0.00  0.00    +0.000 C 
ATOM     32  C   UNL     1      28.972  -0.954  53.351  0.00  0.00    +0.000 C 
ENDBRANCH  30  32
ENDBRANCH  28  30
ENDBRANCH  27  29
ENDBRANCH   1  27
TORSDOF 8
ENDMDL
MODEL 8
REMARK VINA RESULT:    -7.031      2.421      8.398
REMARK INTER + INTRA:         -12.475
REMARK INTER:                 -10.817
REMARK INTRA:                  -1.658
REMARK UNBOUND:                -2.155
REMARK  Name = 
REMARK  10 active torsions:
REMARK  status: ('A' for Active; 'I' for Inactive)
REMARK    1  A    between atoms: C_1  and  C_2
REMARK    2  A    between atoms: C_2  and  C_3
REMARK    3  A    between atoms: C_3  and  C_4
REMARK    4  A    between atoms: C_5  and  C_6
REMARK    5  A    between atoms: C_6  and  N_7
REMARK    6  A    between atoms: C_9  and  C_10
REMARK    7  A    between atoms: C_19  and  C_20
REMARK    8  A    between atoms: C_23  and  C_24
REMARK    9  A    between atoms: C_27  and  O_28
REMARK   10  A    between atoms: O_28  and  C_29
REMARK                            x       y       z     vdW  Elec       q    Type
REMARK                         _______ _______ _______ _____ _____    ______ ____
ROOT
ATOM      1  N   UNL     1      25.045   4.106  50.360  0.00  0.00    +0.000 N 
ATOM      2  C   UNL     1      24.667   3.479  51.641  0.00  0.00    +0.000 C 
ATOM      3  C   UNL     1      23.690   2.394  51.224  0.00  0.00    +0.000 C 
ATOM      4  C   UNL     1      22.863   3.076  50.130  0.00  0.00    +0.000 C 
ATOM      5  C   UNL     1      23.828   4.074  49.494  0.00  0.00    +0.000 C 
ATOM      6  H   UNL     1      25.368   5.065  50.494  0.00  0.00    +0.000 HD
ENDROOT
BRANCH   3   7
ATOM      7  C   UNL     1      22.782   1.788  52.262  0.00  0.00    +0.000 A 
ATOM      8  C   UNL     1      21.474   2.276  52.482  0.00  0.00    +0.000 A 
ATOM      9  C   UNL     1      20.524   1.478  53.131  0.00  0.00    +0.000 A 
ATOM     10  C   UNL     1      20.922   0.232  53.558  0.00  0.00    +0.000 A 
ATOM     11  C   UNL     1      22.220  -0.199  53.427  0.00  0.00    +0.000 A 
ATOM     12  C   UNL     1      23.173   0.556  52.809  0.00  0.00    +0.000 A 
ATOM     13  O   UNL     1      22.400  -1.469  53.879  0.00  0.00    +0.000 OA
ATOM     14  C   UNL     1      21.054  -1.807  54.260  0.00  0.00    +0.000 C 
ATOM     15  O   UNL     1      20.115  -0.723  54.092  0.00  0.00    +0.000 OA
ENDBRANCH   3   7
BRANCH   5  16
ATOM     16  C   UNL     1      23.238   5.474  49.389  0.00  0.00    +0.000 A 
ATOM     17  C   UNL     1      22.285   5.934  50.310  0.00  0.00    +0.000 A 
ATOM     18  C   UNL     1      21.779   7.228  50.245  0.00  0.00    +0.000 A 
ATOM     19  C   UNL     1      22.210   8.098  49.245  0.00  0.00    +0.000 A 
ATOM     20  C   UNL     1      23.149   7.651  48.314  0.00  0.00    +0.000 A 
ATOM     21  C   UNL     1      23.662   6.352  48.383  0.00  0.00    +0.000 A 
BRANCH  19  22
ATOM     22  O   UNL     1      21.786   9.388  49.086  0.00  0.00    +0.000 OA
ATOM     23  C   UNL     1      21.996   9.958  47.798  0.00  0.00    +0.000 C 
ENDBRANCH  19  22
ENDBRANCH   5  16
BRANCH   4  24
ATOM     24  C   UNL     1      22.357   2.084  49.119  0.00  0.00    +0.000 C 
ATOM     25  O   UNL     1      21.647   1.116  49.330  0.00  0.00    +0.000 OA
ATOM     26  O   UNL     1      22.777   2.361  47.870  0.00  0.00    +0.000 OA
ENDBRANCH   4  24
BRANCH   1  27
ATOM     27  C   UNL     1      26.144   3.359  49.740  0.00  0.00    +0.000 C 
BRANCH  27  29
ATOM     28  C   UNL     1      28.010   5.130  48.576  0.00  0.00    +0.000 C 
ATOM     29  C   UNL     1      27.148   4.312  49.113  0.00  0.00    +0.000 C 
BRANCH  28  30
ATOM     30  C   UNL     1      28.995   6.045  47.968  0.00  0.00    +0.000 C 
BRANCH  30  32
ATOM     31  C   UNL     1      27.193   7.819  48.246  0.00  0.00    +0.000 C 
ATOM     32  C   UNL     1      28.309   7.275  47.366  0.00  0.00    +0.000 C 
ENDBRANCH  30  32
ENDBRANCH  28  30
ENDBRANCH  27  29
ENDBRANCH   1  27
TORSDOF 8
ENDMDL
MODEL 9
REMARK VINA RESULT:    -6.901      2.826      6.847
REMARK INTER + INTRA:         -12.283
REMARK INTER:                 -10.777
REMARK INTRA:                  -1.507
REMARK UNBOUND:                -2.155
REMARK  Name = 
REMARK  10 active torsions:
REMARK  status: ('A' for Active; 'I' for Inactive)
REMARK    1  A    between atoms: C_1  and  C_2
REMARK    2  A    between atoms: C_2  and  C_3
REMARK    3  A    between atoms: C_3  and  C_4
REMARK    4  A    between atoms: C_5  and  C_6
REMARK    5  A    between atoms: C_6  and  N_7
REMARK    6  A    between atoms: C_9  and  C_10
REMARK    7  A    between atoms: C_19  and  C_20
REMARK    8  A    between atoms: C_23  and  C_24
REMARK    9  A    between atoms: C_27  and  O_28
REMARK   10  A    between atoms: O_28  and  C_29
REMARK                            x       y       z     vdW  Elec       q    Type
REMARK                         _______ _______ _______ _____ _____    ______ ____
ROOT
ATOM      1  N   UNL     1      24.635   3.421  49.681  0.00  0.00    +0.000 N 
ATOM      2  C   UNL     1      23.510   2.763  48.988  0.00  0.00    +0.000 C 
ATOM      3  C   UNL     1      22.302   3.183  49.807  0.00  0.00    +0.000 C 
ATOM      4  C   UNL     1      22.815   3.096  51.248  0.00  0.00    +0.000 C 
ATOM      5  C   UNL     1      24.305   3.407  51.138  0.00  0.00    +0.000 C 
ATOM      6  H   UNL     1      25.517   2.938  49.506  0.00  0.00    +0.000 HD
ENDROOT
BRANCH   3   7
ATOM      7  C   UNL     1      21.017   2.412  49.664  0.00  0.00    +0.000 A 
ATOM      8  C   UNL     1      20.789   1.207  50.367  0.00  0.00    +0.000 A 
ATOM      9  C   UNL     1      19.485   0.730  50.544  0.00  0.00    +0.000 A 
ATOM     10  C   UNL     1      18.458   1.459  49.992  0.00  0.00    +0.000 A 
ATOM     11  C   UNL     1      18.692   2.578  49.228  0.00  0.00    +0.000 A 
ATOM     12  C   UNL     1      19.949   3.066  49.027  0.00  0.00    +0.000 A 
ATOM     13  O   UNL     1      17.545   3.174  48.805  0.00  0.00    +0.000 OA
ATOM     14  C   UNL     1      16.562   2.333  49.435  0.00  0.00    +0.000 C 
ATOM     15  O   UNL     1      17.131   1.222  50.162  0.00  0.00    +0.000 OA
ENDBRANCH   3   7
BRANCH   5  16
ATOM     16  C   UNL     1      25.172   2.376  51.849  0.00  0.00    +0.000 A 
ATOM     17  C   UNL     1      26.546   2.276  51.589  0.00  0.00    +0.000 A 
ATOM     18  C   UNL     1      27.349   1.367  52.271  0.00  0.00    +0.000 A 
ATOM     19  C   UNL     1      26.792   0.526  53.231  0.00  0.00    +0.000 A 
ATOM     20  C   UNL     1      25.423   0.605  53.493  0.00  0.00    +0.000 A 
ATOM     21  C   UNL     1      24.618   1.522  52.811  0.00  0.00    +0.000 A 
BRANCH  19  22
ATOM     22  O   UNL     1      27.482  -0.400  53.964  0.00  0.00    +0.000 OA
ATOM     23  C   UNL     1      28.578   0.096  54.724  0.00  0.00    +0.000 C 
ENDBRANCH  19  22
ENDBRANCH   5  16
BRANCH   4  24
ATOM     24  C   UNL     1      22.114   4.081  52.144  0.00  0.00    +0.000 C 
ATOM     25  O   UNL     1      20.916   4.159  52.357  0.00  0.00    +0.000 OA
ATOM     26  O   UNL     1      22.969   4.934  52.740  0.00  0.00    +0.000 OA
ENDBRANCH   4  24
BRANCH   1  27
ATOM     27  C   UNL     1      24.788   4.797  49.197  0.00  0.00    +0.000 C 
BRANCH  27  29
ATOM     28  C   UNL     1      27.499   5.350  48.631  0.00  0.00    +0.000 C 
ATOM     29  C   UNL     1      26.247   5.094  48.892  0.00  0.00    +0.000 C 
BRANCH  28  30
ATOM     30  C   UNL     1      28.919   5.635  48.349  0.00  0.00    +0.000 C 
BRANCH  30  32
ATOM     31  C   UNL     1      30.118   7.343  46.893  0.00  0.00    +0.000 C 
ATOM     32  C   UNL     1      29.133   7.118  48.032  0.00  0.00    +0.000 C 
ENDBRANCH  30  32
ENDBRANCH  28  30
ENDBRANCH  27  29
ENDBRANCH   1  27
TORSDOF 8
ENDMDL
