MODEL 1
REMARK VINA RESULT:    -9.049      0.000      0.000
REMARK INTER + INTRA:         -10.750
REMARK INTER:                 -10.371
REMARK INTRA:                  -0.378
REMARK UNBOUND:                -0.378
REMARK  Name = 
REMARK  9 active torsions:
REMARK  status: ('A' for Active; 'I' for Inactive)
REMARK    1  A    between atoms: C_1  and  C_2
REMARK    2  A    between atoms: C_2  and  C_3
REMARK    3  A    between atoms: C_3  and  C_4
REMARK    4  A    between atoms: C_16  and  C_17
REMARK    5  A    between atoms: C_16  and  C_18
REMARK    6  A    between atoms: C_22  and  C_23
REMARK    7  A    between atoms: C_24  and  C_25
REMARK    8  A    between atoms: C_24  and  C_26
REMARK    9  A    between atoms: C_27  and  O_28
REMARK                            x       y       z     vdW  Elec       q    Type
REMARK                         _______ _______ _______ _____ _____    ______ ____
ROOT
ATOM      1  C   UNL     1      22.068   0.775  52.678  0.00  0.00    +0.000 A 
ATOM      2  C   UNL     1      20.845   1.249  52.324  0.00  0.00    +0.000 A 
ATOM      3  C   UNL     1      20.494   2.670  52.361  0.00  0.00    +0.000 A 
ATOM      4  O   UNL     1      19.337   3.061  52.288  0.00  0.00    +0.000 OA
ATOM      5  O   UNL     1      21.553   3.524  52.487  0.00  0.00    +0.000 OA
ATOM      6  C   UNL     1      22.813   2.971  52.264  0.00  0.00    +0.000 A 
ATOM      7  C   UNL     1      23.593   3.568  51.307  0.00  0.00    +0.000 A 
ATOM      8  C   UNL     1      24.962   3.377  51.369  0.00  0.00    +0.000 A 
ATOM      9  C   UNL     1      25.474   2.415  52.259  0.00  0.00    +0.000 A 
ATOM     10  C   UNL     1      24.588   1.511  52.884  0.00  0.00    +0.000 A 
ATOM     11  C   UNL     1      23.196   1.743  52.780  0.00  0.00    +0.000 A 
ATOM     12  O   UNL     1      25.035   0.433  53.611  0.00  0.00    +0.000 OA
ATOM     13  C   UNL     1      26.460   0.130  53.630  0.00  0.00    +0.000 C 
ATOM     14  C   UNL     1      26.880  -0.178  55.075  0.00  0.00    +0.000 C 
ATOM     15  C   UNL     1      26.675  -1.120  52.773  0.00  0.00    +0.000 C 
ATOM     16  C   UNL     1      27.363   1.221  53.113  0.00  0.00    +0.000 C 
ATOM     17  C   UNL     1      26.912   2.291  52.463  0.00  0.00    +0.000 C 
ATOM     18  O   UNL     1      25.798   4.114  50.575  0.00  0.00    +0.000 OA
ATOM     19  C   UNL     1      25.255   4.548  49.308  0.00  0.00    +0.000 C 
ATOM     20  C   UNL     1      26.242   5.564  48.741  0.00  0.00    +0.000 C 
ATOM     21  C   UNL     1      23.798   5.093  49.363  0.00  0.00    +0.000 C 
ATOM     22  C   UNL     1      23.649   6.385  50.192  0.00  0.00    +0.000 C 
ATOM     23  C   UNL     1      23.238   5.338  47.948  0.00  0.00    +0.000 C 
ATOM     24  C   UNL     1      22.968   3.991  50.004  0.00  0.00    +0.000 C 
ENDROOT
BRANCH  24  25
ATOM     25  O   UNL     1      21.594   4.360  50.061  0.00  0.00    +0.000 OA
ATOM     26  H   UNL     1      21.374   4.649  50.960  0.00  0.00    +0.000 HD
ENDBRANCH  24  25
BRANCH   1  27
ATOM     27  C   UNL     1      22.247  -0.712  52.637  0.00  0.00    +0.000 C 
BRANCH  27  29
ATOM     28  C   UNL     1      22.366  -1.085  55.127  0.00  0.00    +0.000 C 
ATOM     29  C   UNL     1      21.609  -1.378  53.849  0.00  0.00    +0.000 C 
ENDBRANCH  27  29
ENDBRANCH   1  27
TORSDOF 3
ENDMDL
MODEL 2
REMARK VINA RESULT:    -8.580      1.575      6.849
REMARK INTER + INTRA:         -10.212
REMARK INTER:                  -9.947
REMARK INTRA:                  -0.265
REMARK UNBOUND:                -0.378
REMARK  Name = 
REMARK  9 active torsions:
REMARK  status: ('A' for Active; 'I' for Inactive)
REMARK    1  A    between atoms: C_1  and  C_2
REMARK    2  A    between atoms: C_2  and  C_3
REMARK    3  A    between atoms: C_3  and  C_4
REMARK    4  A    between atoms: C_16  and  C_17
REMARK    5  A    between atoms: C_16  and  C_18
REMARK    6  A    between atoms: C_22  and  C_23
REMARK    7  A    between atoms: C_24  and  C_25
REMARK    8  A    between atoms: C_24  and  C_26
REMARK    9  A    between atoms: C_27  and  O_28
REMARK                            x       y       z     vdW  Elec       q    Type
REMARK                         _______ _______ _______ _____ _____    ______ ____
ROOT
ATOM      1  C   UNL     1      25.611   3.025  50.994  0.00  0.00    +0.000 A 
ATOM      2  C   UNL     1      26.529   2.166  51.510  0.00  0.00    +0.000 A 
ATOM      3  C   UNL     1      26.493   1.691  52.894  0.00  0.00    +0.000 A 
ATOM      4  O   UNL     1      27.447   1.130  53.418  0.00  0.00    +0.000 OA
ATOM      5  O   UNL     1      25.322   1.924  53.557  0.00  0.00    +0.000 OA
ATOM      6  C   UNL     1      24.237   2.297  52.764  0.00  0.00    +0.000 A 
ATOM      7  C   UNL     1      23.104   1.532  52.862  0.00  0.00    +0.000 A 
ATOM      8  C   UNL     1      21.898   2.099  52.485  0.00  0.00    +0.000 A 
ATOM      9  C   UNL     1      21.911   3.337  51.817  0.00  0.00    +0.000 A 
ATOM     10  C   UNL     1      23.135   3.853  51.338  0.00  0.00    +0.000 A 
ATOM     11  C   UNL     1      24.338   3.228  51.743  0.00  0.00    +0.000 A 
ATOM     12  O   UNL     1      23.194   4.954  50.517  0.00  0.00    +0.000 OA
ATOM     13  C   UNL     1      21.955   5.532  50.013  0.00  0.00    +0.000 C 
ATOM     14  C   UNL     1      22.029   7.059  50.155  0.00  0.00    +0.000 C 
ATOM     15  C   UNL     1      21.855   5.175  48.527  0.00  0.00    +0.000 C 
ATOM     16  C   UNL     1      20.695   5.069  50.698  0.00  0.00    +0.000 C 
ATOM     17  C   UNL     1      20.663   4.037  51.539  0.00  0.00    +0.000 C 
ATOM     18  O   UNL     1      20.720   1.461  52.759  0.00  0.00    +0.000 OA
ATOM     19  C   UNL     1      20.774   0.017  52.815  0.00  0.00    +0.000 C 
ATOM     20  C   UNL     1      19.443  -0.442  53.401  0.00  0.00    +0.000 C 
ATOM     21  C   UNL     1      21.999  -0.571  53.573  0.00  0.00    +0.000 C 
ATOM     22  C   UNL     1      22.021  -0.229  55.078  0.00  0.00    +0.000 C 
ATOM     23  C   UNL     1      22.080  -2.101  53.407  0.00  0.00    +0.000 C 
ATOM     24  C   UNL     1      23.227   0.032  52.909  0.00  0.00    +0.000 C 
ENDROOT
BRANCH  24  25
ATOM     25  O   UNL     1      24.421  -0.479  53.492  0.00  0.00    +0.000 OA
ATOM     26  H   UNL     1      24.810   0.193  54.072  0.00  0.00    +0.000 HD
ENDBRANCH  24  25
BRANCH   1  27
ATOM     27  C   UNL     1      25.822   3.457  49.575  0.00  0.00    +0.000 C 
BRANCH  27  29
ATOM     28  C   UNL     1      27.661   4.898  48.629  0.00  0.00    +0.000 C 
ATOM     29  C   UNL     1      26.428   4.852  49.508  0.00  0.00    +0.000 C 
ENDBRANCH  27  29
ENDBRANCH   1  27
TORSDOF 3
ENDMDL
MODEL 3
REMARK VINA RESULT:    -8.575      1.514      5.537
REMARK INTER + INTRA:         -10.207
REMARK INTER:                  -9.837
REMARK INTRA:                  -0.370
REMARK UNBOUND:                -0.378
REMARK  Name = 
REMARK  9 active torsions:
REMARK  status: ('A' for Active; 'I' for Inactive)
REMARK    1  A    between atoms: C_1  and  C_2
REMARK    2  A    between atoms: C_2  and  C_3
REMARK    3  A    between atoms: C_3  and  C_4
REMARK    4  A    between atoms: C_16  and  C_17
REMARK    5  A    between atoms: C_16  and  C_18
REMARK    6  A    between atoms: C_22  and  C_23
REMARK    7  A    between atoms: C_24  and  C_25
REMARK    8  A    between atoms: C_24  and  C_26
REMARK    9  A    between atoms: C_27  and  O_28
REMARK                            x       y       z     vdW  Elec       q    Type
REMARK                         _______ _______ _______ _____ _____    ______ ____
ROOT
ATOM      1  C   UNL     1      21.430   2.498  51.995  0.00  0.00    +0.000 A 
ATOM      2  C   UNL     1      20.953   1.474  52.750  0.00  0.00    +0.000 A 
ATOM      3  C   UNL     1      21.469   0.107  52.667  0.00  0.00    +0.000 A 
ATOM      4  O   UNL     1      20.877  -0.848  53.153  0.00  0.00    +0.000 OA
ATOM      5  O   UNL     1      22.657  -0.024  52.004  0.00  0.00    +0.000 OA
ATOM      6  C   UNL     1      23.355   1.159  51.765  0.00  0.00    +0.000 A 
ATOM      7  C   UNL     1      24.644   1.224  52.229  0.00  0.00    +0.000 A 
ATOM      8  C   UNL     1      25.505   2.133  51.638  0.00  0.00    +0.000 A 
ATOM      9  C   UNL     1      24.977   3.094  50.756  0.00  0.00    +0.000 A 
ATOM     10  C   UNL     1      23.577   3.265  50.678  0.00  0.00    +0.000 A 
ATOM     11  C   UNL     1      22.741   2.315  51.310  0.00  0.00    +0.000 A 
ATOM     12  O   UNL     1      23.006   4.307  49.986  0.00  0.00    +0.000 OA
ATOM     13  C   UNL     1      23.862   5.344  49.427  0.00  0.00    +0.000 C 
ATOM     14  C   UNL     1      23.401   5.646  47.994  0.00  0.00    +0.000 C 
ATOM     15  C   UNL     1      23.679   6.600  50.282  0.00  0.00    +0.000 C 
ATOM     16  C   UNL     1      25.332   5.015  49.375  0.00  0.00    +0.000 C 
ATOM     17  C   UNL     1      25.865   3.968  50.001  0.00  0.00    +0.000 C 
ATOM     18  O   UNL     1      26.845   2.093  51.912  0.00  0.00    +0.000 OA
ATOM     19  C   UNL     1      27.214   1.596  53.219  0.00  0.00    +0.000 C 
ATOM     20  C   UNL     1      28.724   1.382  53.188  0.00  0.00    +0.000 C 
ATOM     21  C   UNL     1      26.437   0.333  53.691  0.00  0.00    +0.000 C 
ATOM     22  C   UNL     1      26.702  -0.918  52.828  0.00  0.00    +0.000 C 
ATOM     23  C   UNL     1      26.749   0.001  55.163  0.00  0.00    +0.000 C 
ATOM     24  C   UNL     1      24.962   0.695  53.601  0.00  0.00    +0.000 C 
ENDROOT
BRANCH  24  25
ATOM     25  O   UNL     1      24.148  -0.378  54.062  0.00  0.00    +0.000 OA
ATOM     26  H   UNL     1      23.254  -0.050  54.244  0.00  0.00    +0.000 HD
ENDBRANCH  24  25
BRANCH   1  27
ATOM     27  C   UNL     1      20.754   3.824  52.161  0.00  0.00    +0.000 C 
BRANCH  27  29
ATOM     28  C   UNL     1      19.510   4.658  50.134  0.00  0.00    +0.000 C 
ATOM     29  C   UNL     1      19.424   3.862  51.420  0.00  0.00    +0.000 C 
ENDBRANCH  27  29
ENDBRANCH   1  27
TORSDOF 3
ENDMDL
MODEL 4
REMARK VINA RESULT:    -8.362      1.673      6.149
REMARK INTER + INTRA:          -9.963
REMARK INTER:                  -9.448
REMARK INTRA:                  -0.515
REMARK UNBOUND:                -0.378
REMARK  Name = 
REMARK  9 active torsions:
REMARK  status: ('A' for Active; 'I' for Inactive)
REMARK    1  A    between atoms: C_1  and  C_2
REMARK    2  A    between atoms: C_2  and  C_3
REMARK    3  A    between atoms: C_3  and  C_4
REMARK    4  A    between atoms: C_16  and  C_17
REMARK    5  A    between atoms: C_16  and  C_18
REMARK    6  A    between atoms: C_22  and  C_23
REMARK    7  A    between atoms: C_24  and  C_25
REMARK    8  A    between atoms: C_24  and  C_26
REMARK    9  A    between atoms: C_27  and  O_28
REMARK                            x       y       z     vdW  Elec       q    Type
REMARK                         _______ _______ _______ _____ _____    ______ ____
ROOT
ATOM      1  C   UNL     1      22.838   4.309  49.229  0.00  0.00    +0.000 A 
ATOM      2  C   UNL     1      24.060   4.803  48.902  0.00  0.00    +0.000 A 
ATOM      3  C   UNL     1      25.052   5.215  49.896  0.00  0.00    +0.000 A 
ATOM      4  O   UNL     1      26.033   5.886  49.603  0.00  0.00    +0.000 OA
ATOM      5  O   UNL     1      24.798   4.801  51.173  0.00  0.00    +0.000 OA
ATOM      6  C   UNL     1      23.823   3.814  51.311  0.00  0.00    +0.000 A 
ATOM      7  C   UNL     1      24.191   2.665  51.962  0.00  0.00    +0.000 A 
ATOM      8  C   UNL     1      23.195   1.886  52.526  0.00  0.00    +0.000 A 
ATOM      9  C   UNL     1      21.852   2.178  52.222  0.00  0.00    +0.000 A 
ATOM     10  C   UNL     1      21.561   3.086  51.181  0.00  0.00    +0.000 A 
ATOM     11  C   UNL     1      22.617   3.849  50.630  0.00  0.00    +0.000 A 
ATOM     12  O   UNL     1      20.282   3.270  50.708  0.00  0.00    +0.000 OA
ATOM     13  C   UNL     1      19.212   2.411  51.197  0.00  0.00    +0.000 C 
ATOM     14  C   UNL     1      17.990   3.281  51.521  0.00  0.00    +0.000 C 
ATOM     15  C   UNL     1      18.849   1.444  50.067  0.00  0.00    +0.000 C 
ATOM     16  C   UNL     1      19.538   1.603  52.427  0.00  0.00    +0.000 C 
ATOM     17  C   UNL     1      20.773   1.481  52.910  0.00  0.00    +0.000 C 
ATOM     18  O   UNL     1      23.516   0.852  53.362  0.00  0.00    +0.000 OA
ATOM     19  C   UNL     1      24.790   0.211  53.122  0.00  0.00    +0.000 C 
ATOM     20  C   UNL     1      25.050  -0.695  54.322  0.00  0.00    +0.000 C 
ATOM     21  C   UNL     1      25.975   1.179  52.834  0.00  0.00    +0.000 C 
ATOM     22  C   UNL     1      26.336   2.091  54.025  0.00  0.00    +0.000 C 
ATOM     23  C   UNL     1      27.234   0.407  52.394  0.00  0.00    +0.000 C 
ATOM     24  C   UNL     1      25.529   2.042  51.664  0.00  0.00    +0.000 C 
ENDROOT
BRANCH  24  25
ATOM     25  O   UNL     1      26.563   2.940  51.274  0.00  0.00    +0.000 OA
ATOM     26  H   UNL     1      27.040   3.244  52.061  0.00  0.00    +0.000 HD
ENDBRANCH  24  25
BRANCH   1  27
ATOM     27  C   UNL     1      21.919   3.986  48.091  0.00  0.00    +0.000 C 
BRANCH  27  29
ATOM     28  C   UNL     1      21.938   1.465  48.062  0.00  0.00    +0.000 C 
ATOM     29  C   UNL     1      22.372   2.732  47.355  0.00  0.00    +0.000 C 
ENDBRANCH  27  29
ENDBRANCH   1  27
TORSDOF 3
ENDMDL
MODEL 5
REMARK VINA RESULT:    -7.790      2.489      5.805
REMARK INTER + INTRA:          -9.307
REMARK INTER:                  -9.083
REMARK INTRA:                  -0.224
REMARK UNBOUND:                -0.378
REMARK  Name = 
REMARK  9 active torsions:
REMARK  status: ('A' for Active; 'I' for Inactive)
REMARK    1  A    between atoms: C_1  and  C_2
REMARK    2  A    between atoms: C_2  and  C_3
REMARK    3  A    between atoms: C_3  and  C_4
REMARK    4  A    between atoms: C_16  and  C_17
REMARK    5  A    between atoms: C_16  and  C_18
REMARK    6  A    between atoms: C_22  and  C_23
REMARK    7  A    between atoms: C_24  and  C_25
REMARK    8  A    between atoms: C_24  and  C_26
REMARK    9  A    between atoms: C_27  and  O_28
REMARK                            x       y       z     vdW  Elec       q    Type
REMARK                         _______ _______ _______ _____ _____    ______ ____
ROOT
ATOM      1  C   UNL     1      23.061   1.081  52.719  0.00  0.00    +0.000 A 
ATOM      2  C   UNL     1      22.646  -0.065  53.318  0.00  0.00    +0.000 A 
ATOM      3  C   UNL     1      21.358  -0.192  54.003  0.00  0.00    +0.000 A 
ATOM      4  O   UNL     1      21.102  -1.128  54.747  0.00  0.00    +0.000 OA
ATOM      5  O   UNL     1      20.469   0.815  53.753  0.00  0.00    +0.000 OA
ATOM      6  C   UNL     1      20.774   1.645  52.676  0.00  0.00    +0.000 A 
ATOM      7  C   UNL     1      19.823   1.768  51.696  0.00  0.00    +0.000 A 
ATOM      8  C   UNL     1      19.863   2.888  50.884  0.00  0.00    +0.000 A 
ATOM      9  C   UNL     1      20.987   3.731  50.945  0.00  0.00    +0.000 A 
ATOM     10  C   UNL     1      22.138   3.299  51.641  0.00  0.00    +0.000 A 
ATOM     11  C   UNL     1      22.048   2.140  52.447  0.00  0.00    +0.000 A 
ATOM     12  O   UNL     1      23.329   3.984  51.579  0.00  0.00    +0.000 OA
ATOM     13  C   UNL     1      23.455   5.113  50.667  0.00  0.00    +0.000 C 
ATOM     14  C   UNL     1      24.147   6.268  51.405  0.00  0.00    +0.000 C 
ATOM     15  C   UNL     1      24.342   4.664  49.503  0.00  0.00    +0.000 C 
ATOM     16  C   UNL     1      22.160   5.639  50.103  0.00  0.00    +0.000 C 
ATOM     17  C   UNL     1      21.001   4.996  50.221  0.00  0.00    +0.000 C 
ATOM     18  O   UNL     1      18.823   3.165  50.039  0.00  0.00    +0.000 OA
ATOM     19  C   UNL     1      18.082   2.026  49.546  0.00  0.00    +0.000 C 
ATOM     20  C   UNL     1      16.832   2.583  48.871  0.00  0.00    +0.000 C 
ATOM     21  C   UNL     1      17.755   0.937  50.609  0.00  0.00    +0.000 C 
ATOM     22  C   UNL     1      16.812   1.426  51.728  0.00  0.00    +0.000 C 
ATOM     23  C   UNL     1      17.148  -0.320  49.956  0.00  0.00    +0.000 C 
ATOM     24  C   UNL     1      19.090   0.542  51.221  0.00  0.00    +0.000 C 
ENDROOT
BRANCH  24  25
ATOM     25  O   UNL     1      18.920  -0.495  52.181  0.00  0.00    +0.000 OA
ATOM     26  H   UNL     1      19.505  -0.335  52.937  0.00  0.00    +0.000 HD
ENDBRANCH  24  25
BRANCH   1  27
ATOM     27  C   UNL     1      24.430   1.061  52.110  0.00  0.00    +0.000 C 
BRANCH  27  29
ATOM     28  C   UNL     1      26.658  -0.117  52.124  0.00  0.00    +0.000 C 
ATOM     29  C   UNL     1      25.351   0.104  52.856  0.00  0.00    +0.000 C 
ENDBRANCH  27  29
ENDBRANCH   1  27
TORSDOF 3
ENDMDL
MODEL 6
REMARK VINA RESULT:    -7.732      2.115      5.288
REMARK INTER + INTRA:          -9.240
REMARK INTER:                  -8.692
REMARK INTRA:                  -0.548
REMARK UNBOUND:                -0.378
REMARK  Name = 
REMARK  9 active torsions:
REMARK  status: ('A' for Active; 'I' for Inactive)
REMARK    1  A    between atoms: C_1  and  C_2
REMARK    2  A    between atoms: C_2  and  C_3
REMARK    3  A    between atoms: C_3  and  C_4
REMARK    4  A    between atoms: C_16  and  C_17
REMARK    5  A    between atoms: C_16  and  C_18
REMARK    6  A    between atoms: C_22  and  C_23
REMARK    7  A    between atoms: C_24  and  C_25
REMARK    8  A    between atoms: C_24  and  C_26
REMARK    9  A    between atoms: C_27  and  O_28
REMARK                            x       y       z     vdW  Elec       q    Type
REMARK                         _______ _______ _______ _____ _____    ______ ____
ROOT
ATOM      1  C   UNL     1      23.584   3.730  49.845  0.00  0.00    +0.000 A 
ATOM      2  C   UNL     1      22.757   4.331  48.950  0.00  0.00    +0.000 A 
ATOM      3  C   UNL     1      21.799   3.594  48.124  0.00  0.00    +0.000 A 
ATOM      4  O   UNL     1      21.247   4.098  47.155  0.00  0.00    +0.000 OA
ATOM      5  O   UNL     1      21.574   2.303  48.510  0.00  0.00    +0.000 OA
ATOM      6  C   UNL     1      22.034   1.958  49.779  0.00  0.00    +0.000 A 
ATOM      7  C   UNL     1      21.114   1.440  50.654  0.00  0.00    +0.000 A 
ATOM      8  C   UNL     1      21.577   0.671  51.709  0.00  0.00    +0.000 A 
ATOM      9  C   UNL     1      22.959   0.637  51.969  0.00  0.00    +0.000 A 
ATOM     10  C   UNL     1      23.808   1.558  51.316  0.00  0.00    +0.000 A 
ATOM     11  C   UNL     1      23.283   2.329  50.252  0.00  0.00    +0.000 A 
ATOM     12  O   UNL     1      25.130   1.706  51.664  0.00  0.00    +0.000 OA
ATOM     13  C   UNL     1      25.645   0.994  52.826  0.00  0.00    +0.000 C 
ATOM     14  C   UNL     1      26.998   0.367  52.461  0.00  0.00    +0.000 C 
ATOM     15  C   UNL     1      25.858   2.025  53.937  0.00  0.00    +0.000 C 
ATOM     16  C   UNL     1      24.760  -0.103  53.360  0.00  0.00    +0.000 C 
ATOM     17  C   UNL     1      23.498  -0.274  52.970  0.00  0.00    +0.000 C 
ATOM     18  O   UNL     1      20.700  -0.040  52.482  0.00  0.00    +0.000 OA
ATOM     19  C   UNL     1      19.369   0.513  52.609  0.00  0.00    +0.000 C 
ATOM     20  C   UNL     1      18.514  -0.569  53.261  0.00  0.00    +0.000 C 
ATOM     21  C   UNL     1      18.748   1.055  51.289  0.00  0.00    +0.000 C 
ATOM     22  C   UNL     1      18.501  -0.034  50.225  0.00  0.00    +0.000 C 
ATOM     23  C   UNL     1      17.427   1.802  51.557  0.00  0.00    +0.000 C 
ATOM     24  C   UNL     1      19.748   2.064  50.745  0.00  0.00    +0.000 C 
ENDROOT
BRANCH  24  25
ATOM     25  O   UNL     1      19.258   2.671  49.553  0.00  0.00    +0.000 OA
ATOM     26  H   UNL     1      19.982   3.135  49.106  0.00  0.00    +0.000 HD
ENDBRANCH  24  25
BRANCH   1  27
ATOM     27  C   UNL     1      24.544   4.622  50.572  0.00  0.00    +0.000 C 
BRANCH  27  29
ATOM     28  C   UNL     1      23.445   4.839  52.831  0.00  0.00    +0.000 C 
ATOM     29  C   UNL     1      23.815   5.543  51.542  0.00  0.00    +0.000 C 
ENDBRANCH  27  29
ENDBRANCH   1  27
TORSDOF 3
ENDMDL
MODEL 7
REMARK VINA RESULT:    -7.535      2.033      5.156
REMARK INTER + INTRA:          -9.014
REMARK INTER:                  -8.769
REMARK INTRA:                  -0.246
REMARK UNBOUND:                -0.378
REMARK  Name = 
REMARK  9 active torsions:
REMARK  status: ('A' for Active; 'I' for Inactive)
REMARK    1  A    between atoms: C_1  and  C_2
REMARK    2  A    between atoms: C_2  and  C_3
REMARK    3  A    between atoms: C_3  and  C_4
REMARK    4  A    between atoms: C_16  and  C_17
REMARK    5  A    between atoms: C_16  and  C_18
REMARK    6  A    between atoms: C_22  and  C_23
REMARK    7  A    between atoms: C_24  and  C_25
REMARK    8  A    between atoms: C_24  and  C_26
REMARK    9  A    between atoms: C_27  and  O_28
REMARK                            x       y       z     vdW  Elec       q    Type
REMARK                         _______ _______ _______ _____ _____    ______ ____
ROOT
ATOM      1  C   UNL     1      22.111   0.899  52.730  0.00  0.00    +0.000 A 
ATOM      2  C   UNL     1      23.394   0.919  53.177  0.00  0.00    +0.000 A 
ATOM      3  C   UNL     1      24.545   1.149  52.302  0.00  0.00    +0.000 A 
ATOM      4  O   UNL     1      25.693   0.917  52.657  0.00  0.00    +0.000 OA
ATOM      5  O   UNL     1      24.242   1.636  51.063  0.00  0.00    +0.000 OA
ATOM      6  C   UNL     1      22.947   2.125  50.900  0.00  0.00    +0.000 A 
ATOM      7  C   UNL     1      22.821   3.418  50.459  0.00  0.00    +0.000 A 
ATOM      8  C   UNL     1      21.634   3.788  49.851  0.00  0.00    +0.000 A 
ATOM      9  C   UNL     1      20.539   2.907  49.907  0.00  0.00    +0.000 A 
ATOM     10  C   UNL     1      20.593   1.791  50.772  0.00  0.00    +0.000 A 
ATOM     11  C   UNL     1      21.828   1.463  51.379  0.00  0.00    +0.000 A 
ATOM     12  O   UNL     1      19.493   1.003  51.018  0.00  0.00    +0.000 OA
ATOM     13  C   UNL     1      18.199   1.400  50.480  0.00  0.00    +0.000 C 
ATOM     14  C   UNL     1      17.519   0.167  49.869  0.00  0.00    +0.000 C 
ATOM     15  C   UNL     1      17.352   1.904  51.652  0.00  0.00    +0.000 C 
ATOM     16  C   UNL     1      18.236   2.474  49.424  0.00  0.00    +0.000 C 
ATOM     17  C   UNL     1      19.325   3.191  49.153  0.00  0.00    +0.000 C 
ATOM     18  O   UNL     1      21.534   4.991  49.207  0.00  0.00    +0.000 OA
ATOM     19  C   UNL     1      22.368   6.057  49.716  0.00  0.00    +0.000 C 
ATOM     20  C   UNL     1      22.299   7.185  48.691  0.00  0.00    +0.000 C 
ATOM     21  C   UNL     1      23.830   5.648  50.061  0.00  0.00    +0.000 C 
ATOM     22  C   UNL     1      24.656   5.202  48.836  0.00  0.00    +0.000 C 
ATOM     23  C   UNL     1      24.577   6.788  50.780  0.00  0.00    +0.000 C 
ATOM     24  C   UNL     1      23.716   4.484  51.033  0.00  0.00    +0.000 C 
ENDROOT
BRANCH  24  25
ATOM     25  O   UNL     1      25.003   4.055  51.463  0.00  0.00    +0.000 OA
ATOM     26  H   UNL     1      25.012   3.089  51.541  0.00  0.00    +0.000 HD
ENDBRANCH  24  25
BRANCH   1  27
ATOM     27  C   UNL     1      21.053   0.594  53.745  0.00  0.00    +0.000 C 
BRANCH  27  29
ATOM     28  C   UNL     1      21.279  -1.817  54.442  0.00  0.00    +0.000 C 
ATOM     29  C   UNL     1      21.565  -0.374  54.802  0.00  0.00    +0.000 C 
ENDBRANCH  27  29
ENDBRANCH   1  27
TORSDOF 3
ENDMDL
MODEL 8
REMARK VINA RESULT:    -7.521      1.715      4.668
REMARK INTER + INTRA:          -8.999
REMARK INTER:                  -8.624
REMARK INTRA:                  -0.375
REMARK UNBOUND:                -0.378
REMARK  Name = 
REMARK  9 active torsions:
REMARK  status: ('A' for Active; 'I' for Inactive)
REMARK    1  A    between atoms: C_1  and  C_2
REMARK    2  A    between atoms: C_2  and  C_3
REMARK    3  A    between atoms: C_3  and  C_4
REMARK    4  A    between atoms: C_16  and  C_17
REMARK    5  A    between atoms: C_16  and  C_18
REMARK    6  A    between atoms: C_22  and  C_23
REMARK    7  A    between atoms: C_24  and  C_25
REMARK    8  A    between atoms: C_24  and  C_26
REMARK    9  A    between atoms: C_27  and  O_28
REMARK                            x       y       z     vdW  Elec       q    Type
REMARK                         _______ _______ _______ _____ _____    ______ ____
ROOT
ATOM      1  C   UNL     1      25.358   2.056  51.947  0.00  0.00    +0.000 A 
ATOM      2  C   UNL     1      26.219   2.899  51.320  0.00  0.00    +0.000 A 
ATOM      3  C   UNL     1      26.066   3.309  49.923  0.00  0.00    +0.000 A 
ATOM      4  O   UNL     1      26.966   3.854  49.299  0.00  0.00    +0.000 OA
ATOM      5  O   UNL     1      24.848   3.033  49.369  0.00  0.00    +0.000 OA
ATOM      6  C   UNL     1      23.836   2.685  50.263  0.00  0.00    +0.000 A 
ATOM      7  C   UNL     1      22.688   3.434  50.222  0.00  0.00    +0.000 A 
ATOM      8  C   UNL     1      21.525   2.872  50.720  0.00  0.00    +0.000 A 
ATOM      9  C   UNL     1      21.608   1.666  51.441  0.00  0.00    +0.000 A 
ATOM     10  C   UNL     1      22.874   1.187  51.842  0.00  0.00    +0.000 A 
ATOM     11  C   UNL     1      24.032   1.804  51.314  0.00  0.00    +0.000 A 
ATOM     12  O   UNL     1      23.014   0.126  52.706  0.00  0.00    +0.000 OA
ATOM     13  C   UNL     1      21.828  -0.441  53.334  0.00  0.00    +0.000 C 
ATOM     14  C   UNL     1      21.912  -1.972  53.257  0.00  0.00    +0.000 C 
ATOM     15  C   UNL     1      21.842  -0.017  54.805  0.00  0.00    +0.000 C 
ATOM     16  C   UNL     1      20.511  -0.024  52.732  0.00  0.00    +0.000 C 
ATOM     17  C   UNL     1      20.396   0.967  51.850  0.00  0.00    +0.000 C 
ATOM     18  O   UNL     1      20.319   3.484  50.513  0.00  0.00    +0.000 OA
ATOM     19  C   UNL     1      20.348   4.924  50.388  0.00  0.00    +0.000 C 
ATOM     20  C   UNL     1      18.968   5.342  49.891  0.00  0.00    +0.000 C 
ATOM     21  C   UNL     1      21.500   5.489  49.506  0.00  0.00    +0.000 C 
ATOM     22  C   UNL     1      21.406   5.077  48.022  0.00  0.00    +0.000 C 
ATOM     23  C   UNL     1      21.572   7.026  49.596  0.00  0.00    +0.000 C 
ATOM     24  C   UNL     1      22.786   4.930  50.097  0.00  0.00    +0.000 C 
ENDROOT
BRANCH  24  25
ATOM     25  O   UNL     1      23.922   5.426  49.397  0.00  0.00    +0.000 OA
ATOM     26  H   UNL     1      24.564   4.710  49.276  0.00  0.00    +0.000 HD
ENDBRANCH  24  25
BRANCH   1  27
ATOM     27  C   UNL     1      25.688   1.692  53.363  0.00  0.00    +0.000 C 
BRANCH  27  29
ATOM     28  C   UNL     1      26.458  -0.615  52.702  0.00  0.00    +0.000 C 
ATOM     29  C   UNL     1      26.814   0.670  53.421  0.00  0.00    +0.000 C 
ENDBRANCH  27  29
ENDBRANCH   1  27
TORSDOF 3
ENDMDL
MODEL 9
REMARK VINA RESULT:    -7.378      2.132      6.009
REMARK INTER + INTRA:          -8.834
REMARK INTER:                  -8.434
REMARK INTRA:                  -0.401
REMARK UNBOUND:                -0.378
REMARK  Name = 
REMARK  9 active torsions:
REMARK  status: ('A' for Active; 'I' for Inactive)
REMARK    1  A    between atoms: C_1  and  C_2
REMARK    2  A    between atoms: C_2  and  C_3
REMARK    3  A    between atoms: C_3  and  C_4
REMARK    4  A    between atoms: C_16  and  C_17
REMARK    5  A    between atoms: C_16  and  C_18
REMARK    6  A    between atoms: C_22  and  C_23
REMARK    7  A    between atoms: C_24  and  C_25
REMARK    8  A    between atoms: C_24  and  C_26
REMARK    9  A    between atoms: C_27  and  O_28
REMARK                            x       y       z     vdW  Elec       q    Type
REMARK                         _______ _______ _______ _____ _____    ______ ____
ROOT
ATOM      1  C   UNL     1      21.180   4.500  50.259  0.00  0.00    +0.000 A 
ATOM      2  C   UNL     1      22.140   5.449  50.102  0.00  0.00    +0.000 A 
ATOM      3  C   UNL     1      23.074   5.828  51.163  0.00  0.00    +0.000 A 
ATOM      4  O   UNL     1      23.757   6.842  51.102  0.00  0.00    +0.000 OA
ATOM      5  O   UNL     1      23.123   4.971  52.226  0.00  0.00    +0.000 OA
ATOM      6  C   UNL     1      22.524   3.727  52.033  0.00  0.00    +0.000 A 
ATOM      7  C   UNL     1      23.306   2.621  52.248  0.00  0.00    +0.000 A 
ATOM      8  C   UNL     1      22.676   1.420  52.526  0.00  0.00    +0.000 A 
ATOM      9  C   UNL     1      21.282   1.331  52.360  0.00  0.00    +0.000 A 
ATOM     10  C   UNL     1      20.596   2.371  51.695  0.00  0.00    +0.000 A 
ATOM     11  C   UNL     1      21.290   3.574  51.422  0.00  0.00    +0.000 A 
ATOM     12  O   UNL     1      19.275   2.261  51.331  0.00  0.00    +0.000 OA
ATOM     13  C   UNL     1      18.591   0.988  51.513  0.00  0.00    +0.000 C 
ATOM     14  C   UNL     1      17.211   1.253  52.132  0.00  0.00    +0.000 C 
ATOM     15  C   UNL     1      18.402   0.367  50.127  0.00  0.00    +0.000 C 
ATOM     16  C   UNL     1      19.301  -0.012  52.389  0.00  0.00    +0.000 C 
ATOM     17  C   UNL     1      20.564   0.136  52.785  0.00  0.00    +0.000 C 
ATOM     18  O   UNL     1      23.402   0.343  52.955  0.00  0.00    +0.000 OA
ATOM     19  C   UNL     1      24.770   0.272  52.493  0.00  0.00    +0.000 C 
ATOM     20  C   UNL     1      25.444  -0.828  53.307  0.00  0.00    +0.000 C 
ATOM     21  C   UNL     1      25.554   1.616  52.534  0.00  0.00    +0.000 C 
ATOM     22  C   UNL     1      25.765   2.168  53.959  0.00  0.00    +0.000 C 
ATOM     23  C   UNL     1      26.924   1.488  51.839  0.00  0.00    +0.000 C 
ATOM     24  C   UNL     1      24.721   2.607  51.735  0.00  0.00    +0.000 C 
ENDROOT
BRANCH  24  25
ATOM     25  O   UNL     1      25.372   3.871  51.660  0.00  0.00    +0.000 OA
ATOM     26  H   UNL     1      26.330   3.738  51.599  0.00  0.00    +0.000 HD
ENDBRANCH  24  25
BRANCH   1  27
ATOM     27  C   UNL     1      20.269   4.270  49.093  0.00  0.00    +0.000 C 
BRANCH  27  29
ATOM     28  C   UNL     1      17.750   4.322  49.009  0.00  0.00    +0.000 C 
ATOM     29  C   UNL     1      19.017   5.132  49.192  0.00  0.00    +0.000 C 
ENDBRANCH  27  29
ENDBRANCH   1  27
TORSDOF 3
ENDMDL
