MODEL 1
REMARK VINA RESULT:    -7.381      0.000      0.000
REMARK INTER + INTRA:         -13.898
REMARK INTER:                 -11.911
REMARK INTRA:                  -1.986
REMARK UNBOUND:                -1.986
REMARK  Name = 
REMARK  14 active torsions:
REMARK  status: ('A' for Active; 'I' for Inactive)
REMARK    1  A    between atoms: C_1  and  C_2
REMARK    2  A    between atoms: C_2  and  C_3
REMARK    3  A    between atoms: C_2  and  C_4
REMARK    4  A    between atoms: C_2  and  N_5
REMARK    5  A    between atoms: N_5  and  C_6
REMARK    6  A    between atoms: C_6  and  C_7
REMARK    7  A    between atoms: C_7  and  O_8
REMARK    8  A    between atoms: C_7  and  C_9
REMARK    9  A    between atoms: C_9  and  O_10
REMARK   10  A    between atoms: O_10  and  C_11
REMARK   11  A    between atoms: C_11  and  C_13
REMARK   12  A    between atoms: C_16  and  O_17
REMARK   13  A    between atoms: O_17  and  C_18
REMARK   14  A    between atoms: C_18  and  C_19
REMARK                            x       y       z     vdW  Elec       q    Type
REMARK                         _______ _______ _______ _____ _____    ______ ____
ROOT
ATOM      1  C   UNL     1      21.769   4.486  51.121  0.00  0.00    +0.000 C 
ATOM      2  O   UNL     1      20.558   4.606  51.201  0.00  0.00    +0.000 OA
ENDROOT
BRANCH   1   3
ATOM      3  C   UNL     1      22.550   3.442  51.839  0.00  0.00    +0.000 A 
ATOM      4  C   UNL     1      22.343   2.095  51.518  0.00  0.00    +0.000 A 
ATOM      5  C   UNL     1      23.141   1.102  52.099  0.00  0.00    +0.000 A 
ATOM      6  C   UNL     1      24.159   1.446  52.992  0.00  0.00    +0.000 A 
ATOM      7  C   UNL     1      24.333   2.784  53.349  0.00  0.00    +0.000 A 
ATOM      8  C   UNL     1      23.541   3.777  52.768  0.00  0.00    +0.000 A 
BRANCH   6   9
ATOM      9  O   UNL     1      24.932   0.407  53.445  0.00  0.00    +0.000 OA
BRANCH   9  10
ATOM     10  C   UNL     1      25.777  -0.184  52.454  0.00  0.00    +0.000 C 
BRANCH  10  11
ATOM     11  C   UNL     1      27.176  -0.458  52.955  0.00  0.00    +0.000 A 
ATOM     12  C   UNL     1      27.773  -1.721  52.857  0.00  0.00    +0.000 A 
ATOM     13  C   UNL     1      29.115  -1.896  53.201  0.00  0.00    +0.000 A 
ATOM     14  C   UNL     1      29.874  -0.812  53.640  0.00  0.00    +0.000 A 
ATOM     15  C   UNL     1      29.289   0.445  53.757  0.00  0.00    +0.000 A 
ATOM     16  C   UNL     1      27.947   0.622  53.417  0.00  0.00    +0.000 A 
ENDBRANCH  10  11
ENDBRANCH   9  10
ENDBRANCH   6   9
ENDBRANCH   1   3
BRANCH   1  17
ATOM     17  O   UNL     1      22.606   5.201  50.326  0.00  0.00    +0.000 OA
BRANCH  17  18
ATOM     18  C   UNL     1      22.589   6.628  50.522  0.00  0.00    +0.000 C 
BRANCH  18  19
ATOM     19  C   UNL     1      24.038   7.091  50.753  0.00  0.00    +0.000 C 
BRANCH  19  20
ATOM     20  O   UNL     1      24.371   6.948  52.144  0.00  0.00    +0.000 OA
ATOM     21  H   UNL     1      24.380   6.006  52.378  0.00  0.00    +0.000 HD
ENDBRANCH  19  20
BRANCH  19  22
ATOM     22  C   UNL     1      25.055   6.298  49.916  0.00  0.00    +0.000 C 
BRANCH  22  23
ATOM     23  N   UNL     1      25.682   5.211  50.667  0.00  0.00    +0.000 N 
ATOM     24  H   UNL     1      26.516   5.583  51.122  0.00  0.00    +0.000 HD
ATOM     25  H   UNL     1      24.973   4.875  51.320  0.00  0.00    +0.000 HD
BRANCH  23  27
ATOM     26  C   UNL     1      24.916   3.462  49.052  0.00  0.00    +0.000 C 
ATOM     27  C   UNL     1      26.087   4.035  49.867  0.00  0.00    +0.000 C 
ATOM     28  C   UNL     1      26.705   2.934  50.742  0.00  0.00    +0.000 C 
ATOM     29  C   UNL     1      27.158   4.543  48.884  0.00  0.00    +0.000 C 
ENDBRANCH  23  27
ENDBRANCH  22  23
ENDBRANCH  19  22
ENDBRANCH  18  19
ENDBRANCH  17  18
ENDBRANCH   1  17
TORSDOF 11
ENDMDL
MODEL 2
REMARK VINA RESULT:    -6.985      2.240      4.588
REMARK INTER + INTRA:         -13.259
REMARK INTER:                 -11.202
REMARK INTRA:                  -2.057
REMARK UNBOUND:                -1.986
REMARK  Name = 
REMARK  14 active torsions:
REMARK  status: ('A' for Active; 'I' for Inactive)
REMARK    1  A    between atoms: C_1  and  C_2
REMARK    2  A    between atoms: C_2  and  C_3
REMARK    3  A    between atoms: C_2  and  C_4
REMARK    4  A    between atoms: C_2  and  N_5
REMARK    5  A    between atoms: N_5  and  C_6
REMARK    6  A    between atoms: C_6  and  C_7
REMARK    7  A    between atoms: C_7  and  O_8
REMARK    8  A    between atoms: C_7  and  C_9
REMARK    9  A    between atoms: C_9  and  O_10
REMARK   10  A    between atoms: O_10  and  C_11
REMARK   11  A    between atoms: C_11  and  C_13
REMARK   12  A    between atoms: C_16  and  O_17
REMARK   13  A    between atoms: O_17  and  C_18
REMARK   14  A    between atoms: C_18  and  C_19
REMARK                            x       y       z     vdW  Elec       q    Type
REMARK                         _______ _______ _______ _____ _____    ______ ____
ROOT
ATOM      1  C   UNL     1      23.919   5.873  50.675  0.00  0.00    +0.000 C 
ATOM      2  O   UNL     1      23.557   7.029  50.537  0.00  0.00    +0.000 OA
ENDROOT
BRANCH   1   3
ATOM      3  C   UNL     1      22.988   4.733  50.902  0.00  0.00    +0.000 A 
ATOM      4  C   UNL     1      22.253   4.680  52.093  0.00  0.00    +0.000 A 
ATOM      5  C   UNL     1      21.292   3.679  52.283  0.00  0.00    +0.000 A 
ATOM      6  C   UNL     1      21.049   2.734  51.283  0.00  0.00    +0.000 A 
ATOM      7  C   UNL     1      21.816   2.758  50.117  0.00  0.00    +0.000 A 
ATOM      8  C   UNL     1      22.772   3.757  49.923  0.00  0.00    +0.000 A 
BRANCH   6   9
ATOM      9  O   UNL     1      20.036   1.844  51.537  0.00  0.00    +0.000 OA
BRANCH   9  10
ATOM     10  C   UNL     1      20.415   0.468  51.448  0.00  0.00    +0.000 C 
BRANCH  10  11
ATOM     11  C   UNL     1      21.237   0.002  52.628  0.00  0.00    +0.000 A 
ATOM     12  C   UNL     1      20.655  -0.544  53.777  0.00  0.00    +0.000 A 
ATOM     13  C   UNL     1      21.456  -1.092  54.782  0.00  0.00    +0.000 A 
ATOM     14  C   UNL     1      22.843  -1.103  54.645  0.00  0.00    +0.000 A 
ATOM     15  C   UNL     1      23.436  -0.549  53.514  0.00  0.00    +0.000 A 
ATOM     16  C   UNL     1      22.638   0.001  52.510  0.00  0.00    +0.000 A 
ENDBRANCH  10  11
ENDBRANCH   9  10
ENDBRANCH   6   9
ENDBRANCH   1   3
BRANCH   1  17
ATOM     17  O   UNL     1      25.186   5.399  50.569  0.00  0.00    +0.000 OA
BRANCH  17  18
ATOM     18  C   UNL     1      25.756   5.424  49.246  0.00  0.00    +0.000 C 
BRANCH  18  19
ATOM     19  C   UNL     1      26.744   4.251  49.134  0.00  0.00    +0.000 C 
BRANCH  19  20
ATOM     20  O   UNL     1      28.069   4.707  49.456  0.00  0.00    +0.000 OA
ATOM     21  H   UNL     1      28.342   4.332  50.309  0.00  0.00    +0.000 HD
ENDBRANCH  19  20
BRANCH  19  22
ATOM     22  C   UNL     1      26.385   3.080  50.065  0.00  0.00    +0.000 C 
BRANCH  22  23
ATOM     23  N   UNL     1      27.148   3.092  51.312  0.00  0.00    +0.000 N 
ATOM     24  H   UNL     1      28.111   2.834  51.094  0.00  0.00    +0.000 HD
ATOM     25  H   UNL     1      27.052   4.035  51.692  0.00  0.00    +0.000 HD
BRANCH  23  27
ATOM     26  C   UNL     1      25.259   2.571  52.867  0.00  0.00    +0.000 C 
ATOM     27  C   UNL     1      26.659   2.178  52.367  0.00  0.00    +0.000 C 
ATOM     28  C   UNL     1      27.636   2.098  53.550  0.00  0.00    +0.000 C 
ATOM     29  C   UNL     1      26.566   0.789  51.709  0.00  0.00    +0.000 C 
ENDBRANCH  23  27
ENDBRANCH  22  23
ENDBRANCH  19  22
ENDBRANCH  18  19
ENDBRANCH  17  18
ENDBRANCH   1  17
TORSDOF 11
ENDMDL
MODEL 3
REMARK VINA RESULT:    -6.954      2.681      6.621
REMARK INTER + INTRA:         -13.209
REMARK INTER:                 -11.992
REMARK INTRA:                  -1.216
REMARK UNBOUND:                -1.986
REMARK  Name = 
REMARK  14 active torsions:
REMARK  status: ('A' for Active; 'I' for Inactive)
REMARK    1  A    between atoms: C_1  and  C_2
REMARK    2  A    between atoms: C_2  and  C_3
REMARK    3  A    between atoms: C_2  and  C_4
REMARK    4  A    between atoms: C_2  and  N_5
REMARK    5  A    between atoms: N_5  and  C_6
REMARK    6  A    between atoms: C_6  and  C_7
REMARK    7  A    between atoms: C_7  and  O_8
REMARK    8  A    between atoms: C_7  and  C_9
REMARK    9  A    between atoms: C_9  and  O_10
REMARK   10  A    between atoms: O_10  and  C_11
REMARK   11  A    between atoms: C_11  and  C_13
REMARK   12  A    between atoms: C_16  and  O_17
REMARK   13  A    between atoms: O_17  and  C_18
REMARK   14  A    between atoms: C_18  and  C_19
REMARK                            x       y       z     vdW  Elec       q    Type
REMARK                         _______ _______ _______ _____ _____    ______ ____
ROOT
ATOM      1  C   UNL     1      21.137   0.048  52.303  0.00  0.00    +0.000 C 
ATOM      2  O   UNL     1      19.922   0.049  52.398  0.00  0.00    +0.000 OA
ENDROOT
BRANCH   1   3
ATOM      3  C   UNL     1      21.905   0.999  51.454  0.00  0.00    +0.000 A 
ATOM      4  C   UNL     1      23.003   1.671  52.004  0.00  0.00    +0.000 A 
ATOM      5  C   UNL     1      23.807   2.487  51.198  0.00  0.00    +0.000 A 
ATOM      6  C   UNL     1      23.529   2.627  49.835  0.00  0.00    +0.000 A 
ATOM      7  C   UNL     1      22.406   1.996  49.298  0.00  0.00    +0.000 A 
ATOM      8  C   UNL     1      21.606   1.179  50.099  0.00  0.00    +0.000 A 
BRANCH   6   9
ATOM      9  O   UNL     1      24.419   3.385  49.120  0.00  0.00    +0.000 OA
BRANCH   9  10
ATOM     10  C   UNL     1      24.872   4.565  49.791  0.00  0.00    +0.000 C 
BRANCH  10  11
ATOM     11  C   UNL     1      26.026   5.242  49.087  0.00  0.00    +0.000 A 
ATOM     12  C   UNL     1      25.982   6.586  48.700  0.00  0.00    +0.000 A 
ATOM     13  C   UNL     1      27.120   7.209  48.183  0.00  0.00    +0.000 A 
ATOM     14  C   UNL     1      28.311   6.497  48.053  0.00  0.00    +0.000 A 
ATOM     15  C   UNL     1      28.364   5.155  48.419  0.00  0.00    +0.000 A 
ATOM     16  C   UNL     1      27.227   4.530  48.934  0.00  0.00    +0.000 A 
ENDBRANCH  10  11
ENDBRANCH   9  10
ENDBRANCH   6   9
ENDBRANCH   1   3
BRANCH   1  17
ATOM     17  O   UNL     1      22.006  -0.737  52.990  0.00  0.00    +0.000 OA
BRANCH  17  18
ATOM     18  C   UNL     1      21.736  -0.886  54.397  0.00  0.00    +0.000 C 
BRANCH  18  19
ATOM     19  C   UNL     1      23.084  -0.899  55.139  0.00  0.00    +0.000 C 
BRANCH  19  20
ATOM     20  O   UNL     1      23.164  -2.071  55.968  0.00  0.00    +0.000 OA
ATOM     21  H   UNL     1      23.590  -1.843  56.809  0.00  0.00    +0.000 HD
ENDBRANCH  19  20
BRANCH  19  22
ATOM     22  C   UNL     1      24.289  -0.888  54.182  0.00  0.00    +0.000 C 
BRANCH  22  23
ATOM     23  N   UNL     1      25.545  -0.561  54.855  0.00  0.00    +0.000 N 
ATOM     24  H   UNL     1      25.322  -0.028  55.696  0.00  0.00    +0.000 HD
ATOM     25  H   UNL     1      26.003  -1.454  55.043  0.00  0.00    +0.000 HD
BRANCH  23  27
ATOM     26  C   UNL     1      27.948   0.071  54.571  0.00  0.00    +0.000 C 
ATOM     27  C   UNL     1      26.508   0.228  54.057  0.00  0.00    +0.000 C 
ATOM     28  C   UNL     1      26.126   1.716  54.011  0.00  0.00    +0.000 C 
ATOM     29  C   UNL     1      26.438  -0.343  52.628  0.00  0.00    +0.000 C 
ENDBRANCH  23  27
ENDBRANCH  22  23
ENDBRANCH  19  22
ENDBRANCH  18  19
ENDBRANCH  17  18
ENDBRANCH   1  17
TORSDOF 11
ENDMDL
MODEL 4
REMARK VINA RESULT:    -6.891      2.421      6.466
REMARK INTER + INTRA:         -13.107
REMARK INTER:                 -11.941
REMARK INTRA:                  -1.167
REMARK UNBOUND:                -1.986
REMARK  Name = 
REMARK  14 active torsions:
REMARK  status: ('A' for Active; 'I' for Inactive)
REMARK    1  A    between atoms: C_1  and  C_2
REMARK    2  A    between atoms: C_2  and  C_3
REMARK    3  A    between atoms: C_2  and  C_4
REMARK    4  A    between atoms: C_2  and  N_5
REMARK    5  A    between atoms: N_5  and  C_6
REMARK    6  A    between atoms: C_6  and  C_7
REMARK    7  A    between atoms: C_7  and  O_8
REMARK    8  A    between atoms: C_7  and  C_9
REMARK    9  A    between atoms: C_9  and  O_10
REMARK   10  A    between atoms: O_10  and  C_11
REMARK   11  A    between atoms: C_11  and  C_13
REMARK   12  A    between atoms: C_16  and  O_17
REMARK   13  A    between atoms: O_17  and  C_18
REMARK   14  A    between atoms: C_18  and  C_19
REMARK                            x       y       z     vdW  Elec       q    Type
REMARK                         _______ _______ _______ _____ _____    ______ ____
ROOT
ATOM      1  C   UNL     1      21.857   0.071  53.615  0.00  0.00    +0.000 C 
ATOM      2  O   UNL     1      20.922   0.420  54.315  0.00  0.00    +0.000 OA
ENDROOT
BRANCH   1   3
ATOM      3  C   UNL     1      22.402   0.881  52.491  0.00  0.00    +0.000 A 
ATOM      4  C   UNL     1      21.942   0.639  51.190  0.00  0.00    +0.000 A 
ATOM      5  C   UNL     1      22.356   1.459  50.134  0.00  0.00    +0.000 A 
ATOM      6  C   UNL     1      23.219   2.533  50.368  0.00  0.00    +0.000 A 
ATOM      7  C   UNL     1      23.715   2.743  51.655  0.00  0.00    +0.000 A 
ATOM      8  C   UNL     1      23.301   1.930  52.712  0.00  0.00    +0.000 A 
BRANCH   6   9
ATOM      9  O   UNL     1      23.503   3.319  49.281  0.00  0.00    +0.000 OA
BRANCH   9  10
ATOM     10  C   UNL     1      23.785   4.687  49.590  0.00  0.00    +0.000 C 
BRANCH  10  11
ATOM     11  C   UNL     1      25.203   5.090  49.258  0.00  0.00    +0.000 A 
ATOM     12  C   UNL     1      26.260   4.171  49.250  0.00  0.00    +0.000 A 
ATOM     13  C   UNL     1      27.525   4.554  48.799  0.00  0.00    +0.000 A 
ATOM     14  C   UNL     1      27.745   5.855  48.348  0.00  0.00    +0.000 A 
ATOM     15  C   UNL     1      26.707   6.783  48.366  0.00  0.00    +0.000 A 
ATOM     16  C   UNL     1      25.443   6.402  48.818  0.00  0.00    +0.000 A 
ENDBRANCH  10  11
ENDBRANCH   9  10
ENDBRANCH   6   9
ENDBRANCH   1   3
BRANCH   1  17
ATOM     17  O   UNL     1      22.614  -1.046  53.767  0.00  0.00    +0.000 OA
BRANCH  17  18
ATOM     18  C   UNL     1      22.970  -1.381  55.122  0.00  0.00    +0.000 C 
BRANCH  18  19
ATOM     19  C   UNL     1      24.358  -0.783  55.409  0.00  0.00    +0.000 C 
BRANCH  19  20
ATOM     20  O   UNL     1      25.029  -1.582  56.399  0.00  0.00    +0.000 OA
ATOM     21  H   UNL     1      25.051  -2.507  56.107  0.00  0.00    +0.000 HD
ENDBRANCH  19  20
BRANCH  19  22
ATOM     22  C   UNL     1      25.243  -0.708  54.153  0.00  0.00    +0.000 C 
BRANCH  22  23
ATOM     23  N   UNL     1      26.668  -0.613  54.467  0.00  0.00    +0.000 N 
ATOM     24  H   UNL     1      26.800   0.184  55.090  0.00  0.00    +0.000 HD
ATOM     25  H   UNL     1      26.924  -1.508  54.885  0.00  0.00    +0.000 HD
BRANCH  23  27
ATOM     26  C   UNL     1      28.428  -1.683  53.049  0.00  0.00    +0.000 C 
ATOM     27  C   UNL     1      27.566  -0.436  53.306  0.00  0.00    +0.000 C 
ATOM     28  C   UNL     1      28.464   0.800  53.462  0.00  0.00    +0.000 C 
ATOM     29  C   UNL     1      26.645  -0.226  52.090  0.00  0.00    +0.000 C 
ENDBRANCH  23  27
ENDBRANCH  22  23
ENDBRANCH  19  22
ENDBRANCH  18  19
ENDBRANCH  17  18
ENDBRANCH   1  17
TORSDOF 11
ENDMDL
MODEL 5
REMARK VINA RESULT:    -6.822      2.693      4.234
REMARK INTER + INTRA:         -12.996
REMARK INTER:                 -11.372
REMARK INTRA:                  -1.623
REMARK UNBOUND:                -1.986
REMARK  Name = 
REMARK  14 active torsions:
REMARK  status: ('A' for Active; 'I' for Inactive)
REMARK    1  A    between atoms: C_1  and  C_2
REMARK    2  A    between atoms: C_2  and  C_3
REMARK    3  A    between atoms: C_2  and  C_4
REMARK    4  A    between atoms: C_2  and  N_5
REMARK    5  A    between atoms: N_5  and  C_6
REMARK    6  A    between atoms: C_6  and  C_7
REMARK    7  A    between atoms: C_7  and  O_8
REMARK    8  A    between atoms: C_7  and  C_9
REMARK    9  A    between atoms: C_9  and  O_10
REMARK   10  A    between atoms: O_10  and  C_11
REMARK   11  A    between atoms: C_11  and  C_13
REMARK   12  A    between atoms: C_16  and  O_17
REMARK   13  A    between atoms: O_17  and  C_18
REMARK   14  A    between atoms: C_18  and  C_19
REMARK                            x       y       z     vdW  Elec       q    Type
REMARK                         _______ _______ _______ _____ _____    ______ ____
ROOT
ATOM      1  C   UNL     1      19.643  -0.289  52.769  0.00  0.00    +0.000 C 
ATOM      2  O   UNL     1      18.625  -0.738  53.269  0.00  0.00    +0.000 OA
ENDROOT
BRANCH   1   3
ATOM      3  C   UNL     1      21.012  -0.559  53.287  0.00  0.00    +0.000 A 
ATOM      4  C   UNL     1      22.117  -0.248  52.485  0.00  0.00    +0.000 A 
ATOM      5  C   UNL     1      23.416  -0.389  52.990  0.00  0.00    +0.000 A 
ATOM      6  C   UNL     1      23.620  -0.828  54.302  0.00  0.00    +0.000 A 
ATOM      7  C   UNL     1      22.520  -1.184  55.083  0.00  0.00    +0.000 A 
ATOM      8  C   UNL     1      21.224  -1.040  54.583  0.00  0.00    +0.000 A 
BRANCH   6   9
ATOM      9  O   UNL     1      24.924  -0.859  54.724  0.00  0.00    +0.000 OA
BRANCH   9  10
ATOM     10  C   UNL     1      25.776   0.107  54.101  0.00  0.00    +0.000 C 
BRANCH  10  11
ATOM     11  C   UNL     1      27.136  -0.447  53.740  0.00  0.00    +0.000 A 
ATOM     12  C   UNL     1      28.325   0.145  54.181  0.00  0.00    +0.000 A 
ATOM     13  C   UNL     1      29.553  -0.478  53.945  0.00  0.00    +0.000 A 
ATOM     14  C   UNL     1      29.603  -1.698  53.273  0.00  0.00    +0.000 A 
ATOM     15  C   UNL     1      28.428  -2.290  52.816  0.00  0.00    +0.000 A 
ATOM     16  C   UNL     1      27.201  -1.668  53.048  0.00  0.00    +0.000 A 
ENDBRANCH  10  11
ENDBRANCH   9  10
ENDBRANCH   6   9
ENDBRANCH   1   3
BRANCH   1  17
ATOM     17  O   UNL     1      19.732   0.450  51.634  0.00  0.00    +0.000 OA
BRANCH  17  18
ATOM     18  C   UNL     1      18.656   1.379  51.405  0.00  0.00    +0.000 C 
BRANCH  18  19
ATOM     19  C   UNL     1      19.274   2.760  51.126  0.00  0.00    +0.000 C 
BRANCH  19  20
ATOM     20  O   UNL     1      19.034   3.628  52.247  0.00  0.00    +0.000 OA
ATOM     21  H   UNL     1      18.168   3.423  52.634  0.00  0.00    +0.000 HD
ENDBRANCH  19  20
BRANCH  19  22
ATOM     22  C   UNL     1      20.790   2.692  50.871  0.00  0.00    +0.000 C 
BRANCH  22  23
ATOM     23  N   UNL     1      21.579   3.167  52.006  0.00  0.00    +0.000 N 
ATOM     24  H   UNL     1      21.097   3.971  52.410  0.00  0.00    +0.000 HD
ATOM     25  H   UNL     1      21.660   2.374  52.644  0.00  0.00    +0.000 HD
BRANCH  23  27
ATOM     26  C   UNL     1      23.084   5.097  51.494  0.00  0.00    +0.000 C 
ATOM     27  C   UNL     1      22.964   3.577  51.692  0.00  0.00    +0.000 C 
ATOM     28  C   UNL     1      23.511   2.843  50.458  0.00  0.00    +0.000 C 
ATOM     29  C   UNL     1      23.809   3.180  52.916  0.00  0.00    +0.000 C 
ENDBRANCH  23  27
ENDBRANCH  22  23
ENDBRANCH  19  22
ENDBRANCH  18  19
ENDBRANCH  17  18
ENDBRANCH   1  17
TORSDOF 11
ENDMDL
MODEL 6
REMARK VINA RESULT:    -6.754      4.166      7.310
REMARK INTER + INTRA:         -12.886
REMARK INTER:                 -11.661
REMARK INTRA:                  -1.226
REMARK UNBOUND:                -1.986
REMARK  Name = 
REMARK  14 active torsions:
REMARK  status: ('A' for Active; 'I' for Inactive)
REMARK    1  A    between atoms: C_1  and  C_2
REMARK    2  A    between atoms: C_2  and  C_3
REMARK    3  A    between atoms: C_2  and  C_4
REMARK    4  A    between atoms: C_2  and  N_5
REMARK    5  A    between atoms: N_5  and  C_6
REMARK    6  A    between atoms: C_6  and  C_7
REMARK    7  A    between atoms: C_7  and  O_8
REMARK    8  A    between atoms: C_7  and  C_9
REMARK    9  A    between atoms: C_9  and  O_10
REMARK   10  A    between atoms: O_10  and  C_11
REMARK   11  A    between atoms: C_11  and  C_13
REMARK   12  A    between atoms: C_16  and  O_17
REMARK   13  A    between atoms: O_17  and  C_18
REMARK   14  A    between atoms: C_18  and  C_19
REMARK                            x       y       z     vdW  Elec       q    Type
REMARK                         _______ _______ _______ _____ _____    ______ ____
ROOT
ATOM      1  C   UNL     1      25.321  -0.288  53.876  0.00  0.00    +0.000 C 
ATOM      2  O   UNL     1      25.955  -0.425  54.909  0.00  0.00    +0.000 OA
ENDROOT
BRANCH   1   3
ATOM      3  C   UNL     1      23.834  -0.309  53.805  0.00  0.00    +0.000 A 
ATOM      4  C   UNL     1      23.116  -1.050  54.753  0.00  0.00    +0.000 A 
ATOM      5  C   UNL     1      21.717  -0.998  54.775  0.00  0.00    +0.000 A 
ATOM      6  C   UNL     1      21.025  -0.196  53.863  0.00  0.00    +0.000 A 
ATOM      7  C   UNL     1      21.738   0.503  52.888  0.00  0.00    +0.000 A 
ATOM      8  C   UNL     1      23.133   0.456  52.866  0.00  0.00    +0.000 A 
BRANCH   6   9
ATOM      9  O   UNL     1      19.663  -0.156  54.018  0.00  0.00    +0.000 OA
BRANCH   9  10
ATOM     10  C   UNL     1      18.919  -0.354  52.812  0.00  0.00    +0.000 C 
BRANCH  10  11
ATOM     11  C   UNL     1      17.831  -1.393  52.951  0.00  0.00    +0.000 A 
ATOM     12  C   UNL     1      16.604  -1.286  52.286  0.00  0.00    +0.000 A 
ATOM     13  C   UNL     1      15.683  -2.336  52.328  0.00  0.00    +0.000 A 
ATOM     14  C   UNL     1      15.983  -3.503  53.029  0.00  0.00    +0.000 A 
ATOM     15  C   UNL     1      17.193  -3.617  53.708  0.00  0.00    +0.000 A 
ATOM     16  C   UNL     1      18.113  -2.568  53.669  0.00  0.00    +0.000 A 
ENDBRANCH  10  11
ENDBRANCH   9  10
ENDBRANCH   6   9
ENDBRANCH   1   3
BRANCH   1  17
ATOM     17  O   UNL     1      25.822  -0.016  52.644  0.00  0.00    +0.000 OA
BRANCH  17  18
ATOM     18  C   UNL     1      27.217   0.340  52.601  0.00  0.00    +0.000 C 
BRANCH  18  19
ATOM     19  C   UNL     1      27.316   1.874  52.669  0.00  0.00    +0.000 C 
BRANCH  19  20
ATOM     20  O   UNL     1      28.697   2.261  52.778  0.00  0.00    +0.000 OA
ATOM     21  H   UNL     1      29.213   1.519  53.130  0.00  0.00    +0.000 HD
ENDBRANCH  19  20
BRANCH  19  22
ATOM     22  C   UNL     1      26.706   2.564  51.437  0.00  0.00    +0.000 C 
BRANCH  22  23
ATOM     23  N   UNL     1      25.379   3.120  51.697  0.00  0.00    +0.000 N 
ATOM     24  H   UNL     1      24.742   2.342  51.876  0.00  0.00    +0.000 HD
ATOM     25  H   UNL     1      25.489   3.752  52.491  0.00  0.00    +0.000 HD
BRANCH  23  27
ATOM     26  C   UNL     1      25.867   4.345  49.572  0.00  0.00    +0.000 C 
ATOM     27  C   UNL     1      24.805   3.935  50.606  0.00  0.00    +0.000 C 
ATOM     28  C   UNL     1      24.086   5.183  51.142  0.00  0.00    +0.000 C 
ATOM     29  C   UNL     1      23.770   3.034  49.906  0.00  0.00    +0.000 C 
ENDBRANCH  23  27
ENDBRANCH  22  23
ENDBRANCH  19  22
ENDBRANCH  18  19
ENDBRANCH  17  18
ENDBRANCH   1  17
TORSDOF 11
ENDMDL
MODEL 7
REMARK VINA RESULT:    -6.663      3.030      4.879
REMARK INTER + INTRA:         -12.740
REMARK INTER:                 -11.640
REMARK INTRA:                  -1.100
REMARK UNBOUND:                -1.986
REMARK  Name = 
REMARK  14 active torsions:
REMARK  status: ('A' for Active; 'I' for Inactive)
REMARK    1  A    between atoms: C_1  and  C_2
REMARK    2  A    between atoms: C_2  and  C_3
REMARK    3  A    between atoms: C_2  and  C_4
REMARK    4  A    between atoms: C_2  and  N_5
REMARK    5  A    between atoms: N_5  and  C_6
REMARK    6  A    between atoms: C_6  and  C_7
REMARK    7  A    between atoms: C_7  and  O_8
REMARK    8  A    between atoms: C_7  and  C_9
REMARK    9  A    between atoms: C_9  and  O_10
REMARK   10  A    between atoms: O_10  and  C_11
REMARK   11  A    between atoms: C_11  and  C_13
REMARK   12  A    between atoms: C_16  and  O_17
REMARK   13  A    between atoms: O_17  and  C_18
REMARK   14  A    between atoms: C_18  and  C_19
REMARK                            x       y       z     vdW  Elec       q    Type
REMARK                         _______ _______ _______ _____ _____    ______ ____
ROOT
ATOM      1  C   UNL     1      24.748   7.372  50.615  0.00  0.00    +0.000 C 
ATOM      2  O   UNL     1      23.836   8.177  50.706  0.00  0.00    +0.000 OA
ENDROOT
BRANCH   1   3
ATOM      3  C   UNL     1      24.574   5.901  50.761  0.00  0.00    +0.000 A 
ATOM      4  C   UNL     1      23.631   5.412  51.674  0.00  0.00    +0.000 A 
ATOM      5  C   UNL     1      23.372   4.039  51.751  0.00  0.00    +0.000 A 
ATOM      6  C   UNL     1      24.040   3.145  50.910  0.00  0.00    +0.000 A 
ATOM      7  C   UNL     1      25.015   3.627  50.035  0.00  0.00    +0.000 A 
ATOM      8  C   UNL     1      25.272   4.997  49.953  0.00  0.00    +0.000 A 
BRANCH   6   9
ATOM      9  O   UNL     1      23.659   1.831  51.011  0.00  0.00    +0.000 OA
BRANCH   9  10
ATOM     10  C   UNL     1      24.300   1.103  52.063  0.00  0.00    +0.000 C 
BRANCH  10  11
ATOM     11  C   UNL     1      23.327   0.541  53.074  0.00  0.00    +0.000 A 
ATOM     12  C   UNL     1      21.975   0.903  53.092  0.00  0.00    +0.000 A 
ATOM     13  C   UNL     1      21.083   0.254  53.949  0.00  0.00    +0.000 A 
ATOM     14  C   UNL     1      21.532  -0.764  54.789  0.00  0.00    +0.000 A 
ATOM     15  C   UNL     1      22.877  -1.122  54.792  0.00  0.00    +0.000 A 
ATOM     16  C   UNL     1      23.770  -0.474  53.939  0.00  0.00    +0.000 A 
ENDBRANCH  10  11
ENDBRANCH   9  10
ENDBRANCH   6   9
ENDBRANCH   1   3
BRANCH   1  17
ATOM     17  O   UNL     1      26.039   7.639  50.293  0.00  0.00    +0.000 OA
BRANCH  17  18
ATOM     18  C   UNL     1      26.242   8.734  49.379  0.00  0.00    +0.000 C 
BRANCH  18  19
ATOM     19  C   UNL     1      27.476   9.523  49.852  0.00  0.00    +0.000 C 
BRANCH  19  20
ATOM     20  O   UNL     1      27.621   9.378  51.275  0.00  0.00    +0.000 OA
ATOM     21  H   UNL     1      26.785   9.607  51.710  0.00  0.00    +0.000 HD
ENDBRANCH  19  20
BRANCH  19  22
ATOM     22  C   UNL     1      28.775   9.056  49.173  0.00  0.00    +0.000 C 
BRANCH  22  23
ATOM     23  N   UNL     1      28.891   7.600  49.110  0.00  0.00    +0.000 N 
ATOM     24  H   UNL     1      28.923   7.245  50.066  0.00  0.00    +0.000 HD
ATOM     25  H   UNL     1      28.082   7.276  48.579  0.00  0.00    +0.000 HD
BRANCH  23  27
ATOM     26  C   UNL     1      30.014   5.564  48.188  0.00  0.00    +0.000 C 
ATOM     27  C   UNL     1      30.079   7.086  48.394  0.00  0.00    +0.000 C 
ATOM     28  C   UNL     1      31.384   7.464  49.110  0.00  0.00    +0.000 C 
ATOM     29  C   UNL     1      30.062   7.763  47.011  0.00  0.00    +0.000 C 
ENDBRANCH  23  27
ENDBRANCH  22  23
ENDBRANCH  19  22
ENDBRANCH  18  19
ENDBRANCH  17  18
ENDBRANCH   1  17
TORSDOF 11
ENDMDL
MODEL 8
REMARK VINA RESULT:    -6.597      3.117      7.166
REMARK INTER + INTRA:         -12.633
REMARK INTER:                 -11.372
REMARK INTRA:                  -1.262
REMARK UNBOUND:                -1.986
REMARK  Name = 
REMARK  14 active torsions:
REMARK  status: ('A' for Active; 'I' for Inactive)
REMARK    1  A    between atoms: C_1  and  C_2
REMARK    2  A    between atoms: C_2  and  C_3
REMARK    3  A    between atoms: C_2  and  C_4
REMARK    4  A    between atoms: C_2  and  N_5
REMARK    5  A    between atoms: N_5  and  C_6
REMARK    6  A    between atoms: C_6  and  C_7
REMARK    7  A    between atoms: C_7  and  O_8
REMARK    8  A    between atoms: C_7  and  C_9
REMARK    9  A    between atoms: C_9  and  O_10
REMARK   10  A    between atoms: O_10  and  C_11
REMARK   11  A    between atoms: C_11  and  C_13
REMARK   12  A    between atoms: C_16  and  O_17
REMARK   13  A    between atoms: O_17  and  C_18
REMARK   14  A    between atoms: C_18  and  C_19
REMARK                            x       y       z     vdW  Elec       q    Type
REMARK                         _______ _______ _______ _____ _____    ______ ____
ROOT
ATOM      1  C   UNL     1      24.741  -0.363  53.844  0.00  0.00    +0.000 C 
ATOM      2  O   UNL     1      25.634  -0.775  54.565  0.00  0.00    +0.000 OA
ENDROOT
BRANCH   1   3
ATOM      3  C   UNL     1      24.897   0.773  52.895  0.00  0.00    +0.000 A 
ATOM      4  C   UNL     1      26.147   1.001  52.305  0.00  0.00    +0.000 A 
ATOM      5  C   UNL     1      26.294   1.992  51.327  0.00  0.00    +0.000 A 
ATOM      6  C   UNL     1      25.193   2.753  50.921  0.00  0.00    +0.000 A 
ATOM      7  C   UNL     1      23.960   2.559  51.544  0.00  0.00    +0.000 A 
ATOM      8  C   UNL     1      23.810   1.568  52.517  0.00  0.00    +0.000 A 
BRANCH   6   9
ATOM      9  O   UNL     1      25.427   3.644  49.905  0.00  0.00    +0.000 OA
BRANCH   9  10
ATOM     10  C   UNL     1      26.795   3.738  49.496  0.00  0.00    +0.000 C 
BRANCH  10  11
ATOM     11  C   UNL     1      27.109   5.025  48.769  0.00  0.00    +0.000 A 
ATOM     12  C   UNL     1      26.160   6.039  48.599  0.00  0.00    +0.000 A 
ATOM     13  C   UNL     1      26.531   7.268  48.048  0.00  0.00    +0.000 A 
ATOM     14  C   UNL     1      27.853   7.496  47.668  0.00  0.00    +0.000 A 
ATOM     15  C   UNL     1      28.804   6.490  47.817  0.00  0.00    +0.000 A 
ATOM     16  C   UNL     1      28.434   5.261  48.365  0.00  0.00    +0.000 A 
ENDBRANCH  10  11
ENDBRANCH   9  10
ENDBRANCH   6   9
ENDBRANCH   1   3
BRANCH   1  17
ATOM     17  O   UNL     1      23.498  -0.891  53.707  0.00  0.00    +0.000 OA
BRANCH  17  18
ATOM     18  C   UNL     1      22.769  -1.102  54.931  0.00  0.00    +0.000 C 
BRANCH  18  19
ATOM     19  C   UNL     1      21.272  -0.908  54.631  0.00  0.00    +0.000 C 
BRANCH  19  20
ATOM     20  O   UNL     1      20.799   0.274  55.300  0.00  0.00    +0.000 OA
ATOM     21  H   UNL     1      21.030   0.227  56.241  0.00  0.00    +0.000 HD
ENDBRANCH  19  20
BRANCH  19  22
ATOM     22  C   UNL     1      20.981  -0.774  53.127  0.00  0.00    +0.000 C 
BRANCH  22  23
ATOM     23  N   UNL     1      19.710  -0.105  52.852  0.00  0.00    +0.000 N 
ATOM     24  H   UNL     1      19.023  -0.821  52.613  0.00  0.00    +0.000 HD
ATOM     25  H   UNL     1      19.480   0.419  53.697  0.00  0.00    +0.000 HD
BRANCH  23  27
ATOM     26  C   UNL     1      20.033   2.305  52.266  0.00  0.00    +0.000 C 
ATOM     27  C   UNL     1      19.736   0.885  51.754  0.00  0.00    +0.000 C 
ATOM     28  C   UNL     1      18.427   0.880  50.950  0.00  0.00    +0.000 C 
ATOM     29  C   UNL     1      20.887   0.454  50.826  0.00  0.00    +0.000 C 
ENDBRANCH  23  27
ENDBRANCH  22  23
ENDBRANCH  19  22
ENDBRANCH  18  19
ENDBRANCH  17  18
ENDBRANCH   1  17
TORSDOF 11
ENDMDL
MODEL 9
REMARK VINA RESULT:    -6.586      2.562      6.444
REMARK INTER + INTRA:         -12.615
REMARK INTER:                 -10.982
REMARK INTRA:                  -1.633
REMARK UNBOUND:                -1.986
REMARK  Name = 
REMARK  14 active torsions:
REMARK  status: ('A' for Active; 'I' for Inactive)
REMARK    1  A    between atoms: C_1  and  C_2
REMARK    2  A    between atoms: C_2  and  C_3
REMARK    3  A    between atoms: C_2  and  C_4
REMARK    4  A    between atoms: C_2  and  N_5
REMARK    5  A    between atoms: N_5  and  C_6
REMARK    6  A    between atoms: C_6  and  C_7
REMARK    7  A    between atoms: C_7  and  O_8
REMARK    8  A    between atoms: C_7  and  C_9
REMARK    9  A    between atoms: C_9  and  O_10
REMARK   10  A    between atoms: O_10  and  C_11
REMARK   11  A    between atoms: C_11  and  C_13
REMARK   12  A    between atoms: C_16  and  O_17
REMARK   13  A    between atoms: O_17  and  C_18
REMARK   14  A    between atoms: C_18  and  C_19
REMARK                            x       y       z     vdW  Elec       q    Type
REMARK                         _______ _______ _______ _____ _____    ______ ____
ROOT
ATOM      1  C   UNL     1      21.423   1.379  51.514  0.00  0.00    +0.000 C 
ATOM      2  O   UNL     1      20.725   0.905  50.634  0.00  0.00    +0.000 OA
ENDROOT
BRANCH   1   3
ATOM      3  C   UNL     1      22.369   2.509  51.306  0.00  0.00    +0.000 A 
ATOM      4  C   UNL     1      23.251   2.469  50.219  0.00  0.00    +0.000 A 
ATOM      5  C   UNL     1      24.073   3.567  49.938  0.00  0.00    +0.000 A 
ATOM      6  C   UNL     1      24.012   4.717  50.731  0.00  0.00    +0.000 A 
ATOM      7  C   UNL     1      23.169   4.737  51.843  0.00  0.00    +0.000 A 
ATOM      8  C   UNL     1      22.346   3.645  52.123  0.00  0.00    +0.000 A 
BRANCH   6   9
ATOM      9  O   UNL     1      24.802   5.762  50.326  0.00  0.00    +0.000 OA
BRANCH   9  10
ATOM     10  C   UNL     1      25.084   5.789  48.923  0.00  0.00    +0.000 C 
BRANCH  10  11
ATOM     11  C   UNL     1      26.546   6.016  48.617  0.00  0.00    +0.000 A 
ATOM     12  C   UNL     1      27.495   4.990  48.698  0.00  0.00    +0.000 A 
ATOM     13  C   UNL     1      28.807   5.207  48.269  0.00  0.00    +0.000 A 
ATOM     14  C   UNL     1      29.180   6.447  47.753  0.00  0.00    +0.000 A 
ATOM     15  C   UNL     1      28.250   7.480  47.682  0.00  0.00    +0.000 A 
ATOM     16  C   UNL     1      26.940   7.266  48.112  0.00  0.00    +0.000 A 
ENDBRANCH  10  11
ENDBRANCH   9  10
ENDBRANCH   6   9
ENDBRANCH   1   3
BRANCH   1  17
ATOM     17  O   UNL     1      21.417   1.039  52.829  0.00  0.00    +0.000 OA
BRANCH  17  18
ATOM     18  C   UNL     1      21.412  -0.374  53.110  0.00  0.00    +0.000 C 
BRANCH  18  19
ATOM     19  C   UNL     1      22.009  -0.579  54.513  0.00  0.00    +0.000 C 
BRANCH  19  20
ATOM     20  O   UNL     1      21.400  -1.726  55.130  0.00  0.00    +0.000 OA
ATOM     21  H   UNL     1      20.439  -1.685  55.010  0.00  0.00    +0.000 HD
ENDBRANCH  19  20
BRANCH  19  22
ATOM     22  C   UNL     1      23.534  -0.785  54.485  0.00  0.00    +0.000 C 
BRANCH  22  23
ATOM     23  N   UNL     1      24.153  -0.268  53.265  0.00  0.00    +0.000 N 
ATOM     24  H   UNL     1      24.273  -1.049  52.618  0.00  0.00    +0.000 HD
ATOM     25  H   UNL     1      23.528   0.460  52.919  0.00  0.00    +0.000 HD
BRANCH  23  27
ATOM     26  C   UNL     1      26.146  -0.044  54.759  0.00  0.00    +0.000 C 
ATOM     27  C   UNL     1      25.470   0.380  53.445  0.00  0.00    +0.000 C 
ATOM     28  C   UNL     1      25.366   1.911  53.378  0.00  0.00    +0.000 C 
ATOM     29  C   UNL     1      26.342  -0.107  52.273  0.00  0.00    +0.000 C 
ENDBRANCH  23  27
ENDBRANCH  22  23
ENDBRANCH  19  22
ENDBRANCH  18  19
ENDBRANCH  17  18
ENDBRANCH   1  17
TORSDOF 11
ENDMDL
