MODEL 1
REMARK VINA RESULT:    -8.457      0.000      0.000
REMARK INTER + INTRA:         -10.590
REMARK INTER:                  -9.941
REMARK INTRA:                  -0.650
REMARK UNBOUND:                -0.650
REMARK  Name = 
REMARK  3 active torsions:
REMARK  status: ('A' for Active; 'I' for Inactive)
REMARK    1  A    between atoms: C_2  and  C_3
REMARK    2  A    between atoms: C_2  and  C_11
REMARK    3  A    between atoms: C_14  and  N_15
REMARK                            x       y       z     vdW  Elec       q    Type
REMARK                         _______ _______ _______ _____ _____    ______ ____
ROOT
ATOM      1  C   UNL     1      22.613   0.502  53.318  0.00  0.00    +0.000 A 
ATOM      2  C   UNL     1      23.588   1.331  52.751  0.00  0.00    +0.000 A 
ATOM      3  C   UNL     1      24.933   0.984  52.792  0.00  0.00    +0.000 A 
ATOM      4  C   UNL     1      25.365  -0.155  53.473  0.00  0.00    +0.000 A 
ATOM      5  C   UNL     1      24.390  -0.981  54.057  0.00  0.00    +0.000 A 
ATOM      6  C   UNL     1      23.025  -0.655  53.992  0.00  0.00    +0.000 A 
ATOM      7 CL   UNL     1      21.938  -1.754  54.769  0.00  0.00    +0.000 Cl
ENDROOT
BRANCH   4   8
ATOM      8  N   UNL     1      26.758  -0.460  53.585  0.00  0.00    +0.000 N 
ATOM      9  N   UNL     1      27.471   0.443  54.350  0.00  0.00    +0.000 NA
ATOM     10  C   UNL     1      28.734   0.223  54.522  0.00  0.00    +0.000 A 
ATOM     11  C   UNL     1      29.449  -0.933  53.917  0.00  0.00    +0.000 A 
ATOM     12  O   UNL     1      30.649  -1.081  54.118  0.00  0.00    +0.000 OA
ATOM     13  N   UNL     1      28.680  -1.750  53.163  0.00  0.00    +0.000 N 
ATOM     14  C   UNL     1      27.342  -1.572  52.949  0.00  0.00    +0.000 A 
ATOM     15  O   UNL     1      26.782  -2.375  52.202  0.00  0.00    +0.000 OA
ATOM     16  H   UNL     1      29.114  -2.527  52.739  0.00  0.00    +0.000 HD
ENDBRANCH   4   8
BRANCH   1  18
ATOM     17  O   UNL     1      20.450   0.882  54.169  0.00  0.00    +0.000 OA
ATOM     18  C   UNL     1      21.186   0.901  53.186  0.00  0.00    +0.000 C 
BRANCH  18  19
ATOM     19  C   UNL     1      20.635   1.474  51.924  0.00  0.00    +0.000 A 
ATOM     20  C   UNL     1      20.066   0.545  51.035  0.00  0.00    +0.000 A 
ATOM     21  C   UNL     1      19.458   0.967  49.853  0.00  0.00    +0.000 A 
ATOM     22  C   UNL     1      19.398   2.324  49.558  0.00  0.00    +0.000 A 
ATOM     23 CL   UNL     1      18.640   2.853  48.109  0.00  0.00    +0.000 Cl
ATOM     24  C   UNL     1      19.972   3.259  50.416  0.00  0.00    +0.000 A 
ATOM     25  C   UNL     1      20.625   2.837  51.579  0.00  0.00    +0.000 A 
ATOM     26 CL   UNL     1      21.435   4.074  52.478  0.00  0.00    +0.000 Cl
ENDBRANCH  18  19
ENDBRANCH   1  18
TORSDOF 3
ENDMDL
MODEL 2
REMARK VINA RESULT:    -8.409      2.575      3.318
REMARK INTER + INTRA:         -10.533
REMARK INTER:                  -9.667
REMARK INTRA:                  -0.866
REMARK UNBOUND:                -0.650
REMARK  Name = 
REMARK  3 active torsions:
REMARK  status: ('A' for Active; 'I' for Inactive)
REMARK    1  A    between atoms: C_2  and  C_3
REMARK    2  A    between atoms: C_2  and  C_11
REMARK    3  A    between atoms: C_14  and  N_15
REMARK                            x       y       z     vdW  Elec       q    Type
REMARK                         _______ _______ _______ _____ _____    ______ ____
ROOT
ATOM      1  C   UNL     1      23.874   2.569  51.782  0.00  0.00    +0.000 A 
ATOM      2  C   UNL     1      23.948   1.826  52.966  0.00  0.00    +0.000 A 
ATOM      3  C   UNL     1      25.153   1.277  53.390  0.00  0.00    +0.000 A 
ATOM      4  C   UNL     1      26.305   1.371  52.610  0.00  0.00    +0.000 A 
ATOM      5  C   UNL     1      26.230   2.103  51.412  0.00  0.00    +0.000 A 
ATOM      6  C   UNL     1      25.025   2.690  50.992  0.00  0.00    +0.000 A 
ATOM      7 CL   UNL     1      25.074   3.547  49.489  0.00  0.00    +0.000 Cl
ENDROOT
BRANCH   4   8
ATOM      8  N   UNL     1      27.519   0.731  53.011  0.00  0.00    +0.000 N 
ATOM      9  N   UNL     1      27.475  -0.649  52.942  0.00  0.00    +0.000 NA
ATOM     10  C   UNL     1      28.543  -1.303  53.262  0.00  0.00    +0.000 A 
ATOM     11  C   UNL     1      29.795  -0.644  53.723  0.00  0.00    +0.000 A 
ATOM     12  O   UNL     1      30.771  -1.325  54.015  0.00  0.00    +0.000 OA
ATOM     13  N   UNL     1      29.741   0.705  53.785  0.00  0.00    +0.000 N 
ATOM     14  C   UNL     1      28.644   1.451  53.455  0.00  0.00    +0.000 A 
ATOM     15  O   UNL     1      28.729   2.670  53.604  0.00  0.00    +0.000 OA
ATOM     16  H   UNL     1      30.547   1.183  54.089  0.00  0.00    +0.000 HD
ENDBRANCH   4   8
BRANCH   1  18
ATOM     17  O   UNL     1      22.475   4.399  51.294  0.00  0.00    +0.000 OA
ATOM     18  C   UNL     1      22.569   3.181  51.416  0.00  0.00    +0.000 C 
BRANCH  18  19
ATOM     19  C   UNL     1      21.383   2.358  51.040  0.00  0.00    +0.000 A 
ATOM     20  C   UNL     1      20.447   2.139  52.066  0.00  0.00    +0.000 A 
ATOM     21  C   UNL     1      19.265   1.442  51.819  0.00  0.00    +0.000 A 
ATOM     22  C   UNL     1      19.001   0.972  50.538  0.00  0.00    +0.000 A 
ATOM     23 CL   UNL     1      17.540   0.122  50.223  0.00  0.00    +0.000 Cl
ATOM     24  C   UNL     1      19.922   1.162  49.511  0.00  0.00    +0.000 A 
ATOM     25  C   UNL     1      21.131   1.819  49.766  0.00  0.00    +0.000 A 
ATOM     26 CL   UNL     1      22.260   1.851  48.455  0.00  0.00    +0.000 Cl
ENDBRANCH  18  19
ENDBRANCH   1  18
TORSDOF 3
ENDMDL
MODEL 3
REMARK VINA RESULT:    -8.228      3.509      4.662
REMARK INTER + INTRA:         -10.321
REMARK INTER:                  -9.500
REMARK INTRA:                  -0.821
REMARK UNBOUND:                -0.650
REMARK  Name = 
REMARK  3 active torsions:
REMARK  status: ('A' for Active; 'I' for Inactive)
REMARK    1  A    between atoms: C_2  and  C_3
REMARK    2  A    between atoms: C_2  and  C_11
REMARK    3  A    between atoms: C_14  and  N_15
REMARK                            x       y       z     vdW  Elec       q    Type
REMARK                         _______ _______ _______ _____ _____    ______ ____
ROOT
ATOM      1  C   UNL     1      24.153   3.412  51.935  0.00  0.00    +0.000 A 
ATOM      2  C   UNL     1      24.354   2.999  53.257  0.00  0.00    +0.000 A 
ATOM      3  C   UNL     1      25.480   2.267  53.614  0.00  0.00    +0.000 A 
ATOM      4  C   UNL     1      26.401   1.845  52.654  0.00  0.00    +0.000 A 
ATOM      5  C   UNL     1      26.194   2.245  51.323  0.00  0.00    +0.000 A 
ATOM      6  C   UNL     1      25.076   3.013  50.959  0.00  0.00    +0.000 A 
ATOM      7 CL   UNL     1      24.939   3.419  49.283  0.00  0.00    +0.000 Cl
ENDROOT
BRANCH   4   8
ATOM      8  N   UNL     1      27.512   1.019  53.015  0.00  0.00    +0.000 N 
ATOM      9  N   UNL     1      27.258  -0.336  52.919  0.00  0.00    +0.000 NA
ATOM     10  C   UNL     1      28.222  -1.151  53.202  0.00  0.00    +0.000 A 
ATOM     11  C   UNL     1      29.567  -0.699  53.648  0.00  0.00    +0.000 A 
ATOM     12  O   UNL     1      30.434  -1.526  53.904  0.00  0.00    +0.000 OA
ATOM     13  N   UNL     1      29.719   0.641  53.739  0.00  0.00    +0.000 N 
ATOM     14  C   UNL     1      28.741   1.551  53.449  0.00  0.00    +0.000 A 
ATOM     15  O   UNL     1      29.012   2.740  53.621  0.00  0.00    +0.000 OA
ATOM     16  H   UNL     1      30.593   0.985  54.035  0.00  0.00    +0.000 HD
ENDBRANCH   4   8
BRANCH   1  18
ATOM     17  O   UNL     1      21.873   3.969  52.136  0.00  0.00    +0.000 OA
ATOM     18  C   UNL     1      22.958   4.245  51.631  0.00  0.00    +0.000 C 
BRANCH  18  19
ATOM     19  C   UNL     1      23.051   5.509  50.844  0.00  0.00    +0.000 A 
ATOM     20  C   UNL     1      23.896   6.496  51.381  0.00  0.00    +0.000 A 
ATOM     21  C   UNL     1      24.116   7.694  50.702  0.00  0.00    +0.000 A 
ATOM     22  C   UNL     1      23.507   7.908  49.471  0.00  0.00    +0.000 A 
ATOM     23 CL   UNL     1      23.784   9.376  48.622  0.00  0.00    +0.000 Cl
ATOM     24  C   UNL     1      22.653   6.950  48.930  0.00  0.00    +0.000 A 
ATOM     25  C   UNL     1      22.391   5.768  49.630  0.00  0.00    +0.000 A 
ATOM     26 CL   UNL     1      21.192   4.731  48.935  0.00  0.00    +0.000 Cl
ENDBRANCH  18  19
ENDBRANCH   1  18
TORSDOF 3
ENDMDL
MODEL 4
REMARK VINA RESULT:    -8.194      1.650      1.888
REMARK INTER + INTRA:         -10.281
REMARK INTER:                  -9.570
REMARK INTRA:                  -0.711
REMARK UNBOUND:                -0.650
REMARK  Name = 
REMARK  3 active torsions:
REMARK  status: ('A' for Active; 'I' for Inactive)
REMARK    1  A    between atoms: C_2  and  C_3
REMARK    2  A    between atoms: C_2  and  C_11
REMARK    3  A    between atoms: C_14  and  N_15
REMARK                            x       y       z     vdW  Elec       q    Type
REMARK                         _______ _______ _______ _____ _____    ______ ____
ROOT
ATOM      1  C   UNL     1      23.194   1.718  52.451  0.00  0.00    +0.000 A 
ATOM      2  C   UNL     1      24.340   2.184  51.796  0.00  0.00    +0.000 A 
ATOM      3  C   UNL     1      25.570   1.562  51.977  0.00  0.00    +0.000 A 
ATOM      4  C   UNL     1      25.721   0.511  52.883  0.00  0.00    +0.000 A 
ATOM      5  C   UNL     1      24.576   0.051  53.554  0.00  0.00    +0.000 A 
ATOM      6  C   UNL     1      23.322   0.652  53.352  0.00  0.00    +0.000 A 
ATOM      7 CL   UNL     1      22.002  -0.005  54.257  0.00  0.00    +0.000 Cl
ENDROOT
BRANCH   4   8
ATOM      8  N   UNL     1      27.006  -0.068  53.129  0.00  0.00    +0.000 N 
ATOM      9  N   UNL     1      27.926   0.815  53.664  0.00  0.00    +0.000 NA
ATOM     10  C   UNL     1      29.105   0.361  53.941  0.00  0.00    +0.000 A 
ATOM     11  C   UNL     1      29.517  -1.045  53.687  0.00  0.00    +0.000 A 
ATOM     12  O   UNL     1      30.653  -1.408  53.970  0.00  0.00    +0.000 OA
ATOM     13  N   UNL     1      28.564  -1.831  53.137  0.00  0.00    +0.000 N 
ATOM     14  C   UNL     1      27.300  -1.410  52.828  0.00  0.00    +0.000 A 
ATOM     15  O   UNL     1      26.554  -2.229  52.291  0.00  0.00    +0.000 OA
ATOM     16  H   UNL     1      28.796  -2.769  52.948  0.00  0.00    +0.000 HD
ENDBRANCH   4   8
BRANCH   1  18
ATOM     17  O   UNL     1      21.775   3.596  52.363  0.00  0.00    +0.000 OA
ATOM     18  C   UNL     1      21.898   2.390  52.165  0.00  0.00    +0.000 C 
BRANCH  18  19
ATOM     19  C   UNL     1      20.766   1.682  51.501  0.00  0.00    +0.000 A 
ATOM     20  C   UNL     1      19.713   1.294  52.348  0.00  0.00    +0.000 A 
ATOM     21  C   UNL     1      18.569   0.685  51.834  0.00  0.00    +0.000 A 
ATOM     22  C   UNL     1      18.460   0.474  50.464  0.00  0.00    +0.000 A 
ATOM     23 CL   UNL     1      17.048  -0.264  49.821  0.00  0.00    +0.000 Cl
ATOM     24  C   UNL     1      19.499   0.835  49.609  0.00  0.00    +0.000 A 
ATOM     25  C   UNL     1      20.668   1.402  50.126  0.00  0.00    +0.000 A 
ATOM     26 CL   UNL     1      21.947   1.658  48.989  0.00  0.00    +0.000 Cl
ENDBRANCH  18  19
ENDBRANCH   1  18
TORSDOF 3
ENDMDL
MODEL 5
REMARK VINA RESULT:    -8.108      4.534      8.297
REMARK INTER + INTRA:         -10.180
REMARK INTER:                  -9.673
REMARK INTRA:                  -0.507
REMARK UNBOUND:                -0.650
REMARK  Name = 
REMARK  3 active torsions:
REMARK  status: ('A' for Active; 'I' for Inactive)
REMARK    1  A    between atoms: C_2  and  C_3
REMARK    2  A    between atoms: C_2  and  C_11
REMARK    3  A    between atoms: C_14  and  N_15
REMARK                            x       y       z     vdW  Elec       q    Type
REMARK                         _______ _______ _______ _____ _____    ______ ____
ROOT
ATOM      1  C   UNL     1      22.085   1.189  52.571  0.00  0.00    +0.000 A 
ATOM      2  C   UNL     1      21.395   0.842  53.738  0.00  0.00    +0.000 A 
ATOM      3  C   UNL     1      20.149   0.228  53.676  0.00  0.00    +0.000 A 
ATOM      4  C   UNL     1      19.507   0.019  52.455  0.00  0.00    +0.000 A 
ATOM      5  C   UNL     1      20.191   0.381  51.282  0.00  0.00    +0.000 A 
ATOM      6  C   UNL     1      21.465   0.972  51.334  0.00  0.00    +0.000 A 
ATOM      7 CL   UNL     1      22.181   1.382  49.814  0.00  0.00    +0.000 Cl
ENDROOT
BRANCH   4   8
ATOM      8  N   UNL     1      18.189  -0.534  52.402  0.00  0.00    +0.000 N 
ATOM      9  N   UNL     1      17.308   0.189  51.620  0.00  0.00    +0.000 NA
ATOM     10  C   UNL     1      16.102  -0.260  51.499  0.00  0.00    +0.000 A 
ATOM     11  C   UNL     1      15.619  -1.492  52.179  0.00  0.00    +0.000 A 
ATOM     12  O   UNL     1      14.460  -1.860  52.025  0.00  0.00    +0.000 OA
ATOM     13  N   UNL     1      16.538  -2.121  52.945  0.00  0.00    +0.000 N 
ATOM     14  C   UNL     1      17.828  -1.697  53.107  0.00  0.00    +0.000 A 
ATOM     15  O   UNL     1      18.540  -2.350  53.871  0.00  0.00    +0.000 OA
ATOM     16  H   UNL     1      16.260  -2.939  53.418  0.00  0.00    +0.000 HD
ENDBRANCH   4   8
BRANCH   1  18
ATOM     17  O   UNL     1      23.563   2.990  52.917  0.00  0.00    +0.000 OA
ATOM     18  C   UNL     1      23.441   1.787  52.707  0.00  0.00    +0.000 C 
BRANCH  18  19
ATOM     19  C   UNL     1      24.676   0.952  52.746  0.00  0.00    +0.000 A 
ATOM     20  C   UNL     1      24.669  -0.096  53.684  0.00  0.00    +0.000 A 
ATOM     21  C   UNL     1      25.739  -0.987  53.768  0.00  0.00    +0.000 A 
ATOM     22  C   UNL     1      26.818  -0.847  52.903  0.00  0.00    +0.000 A 
ATOM     23 CL   UNL     1      28.135  -1.948  52.993  0.00  0.00    +0.000 Cl
ATOM     24  C   UNL     1      26.854   0.195  51.980  0.00  0.00    +0.000 A 
ATOM     25  C   UNL     1      25.805   1.119  51.924  0.00  0.00    +0.000 A 
ATOM     26 CL   UNL     1      26.036   2.457  50.851  0.00  0.00    +0.000 Cl
ENDBRANCH  18  19
ENDBRANCH   1  18
TORSDOF 3
ENDMDL
MODEL 6
REMARK VINA RESULT:    -8.070      4.061      8.010
REMARK INTER + INTRA:         -10.135
REMARK INTER:                  -9.588
REMARK INTRA:                  -0.547
REMARK UNBOUND:                -0.650
REMARK  Name = 
REMARK  3 active torsions:
REMARK  status: ('A' for Active; 'I' for Inactive)
REMARK    1  A    between atoms: C_2  and  C_3
REMARK    2  A    between atoms: C_2  and  C_11
REMARK    3  A    between atoms: C_14  and  N_15
REMARK                            x       y       z     vdW  Elec       q    Type
REMARK                         _______ _______ _______ _____ _____    ______ ____
ROOT
ATOM      1  C   UNL     1      23.692  -0.014  53.265  0.00  0.00    +0.000 A 
ATOM      2  C   UNL     1      24.076   1.049  52.438  0.00  0.00    +0.000 A 
ATOM      3  C   UNL     1      23.167   1.642  51.569  0.00  0.00    +0.000 A 
ATOM      4  C   UNL     1      21.872   1.144  51.427  0.00  0.00    +0.000 A 
ATOM      5  C   UNL     1      21.488   0.067  52.244  0.00  0.00    +0.000 A 
ATOM      6  C   UNL     1      22.389  -0.518  53.149  0.00  0.00    +0.000 A 
ATOM      7 CL   UNL     1      21.787  -1.847  54.079  0.00  0.00    +0.000 Cl
ENDROOT
BRANCH   4   8
ATOM      8  N   UNL     1      20.970   1.705  50.469  0.00  0.00    +0.000 N 
ATOM      9  N   UNL     1      20.014   2.539  51.019  0.00  0.00    +0.000 NA
ATOM     10  C   UNL     1      19.177   3.108  50.214  0.00  0.00    +0.000 A 
ATOM     11  C   UNL     1      19.180   2.884  48.743  0.00  0.00    +0.000 A 
ATOM     12  O   UNL     1      18.353   3.452  48.039  0.00  0.00    +0.000 OA
ATOM     13  N   UNL     1      20.130   2.034  48.296  0.00  0.00    +0.000 N 
ATOM     14  C   UNL     1      21.045   1.407  49.096  0.00  0.00    +0.000 A 
ATOM     15  O   UNL     1      21.824   0.625  48.550  0.00  0.00    +0.000 OA
ATOM     16  H   UNL     1      20.165   1.853  47.328  0.00  0.00    +0.000 HD
ENDBRANCH   4   8
BRANCH   1  18
ATOM     17  O   UNL     1      24.324  -1.204  55.196  0.00  0.00    +0.000 OA
ATOM     18  C   UNL     1      24.695  -0.563  54.216  0.00  0.00    +0.000 C 
BRANCH  18  19
ATOM     19  C   UNL     1      26.161  -0.496  53.951  0.00  0.00    +0.000 A 
ATOM     20  C   UNL     1      26.878   0.419  54.741  0.00  0.00    +0.000 A 
ATOM     21  C   UNL     1      28.265   0.524  54.633  0.00  0.00    +0.000 A 
ATOM     22  C   UNL     1      28.948  -0.298  53.745  0.00  0.00    +0.000 A 
ATOM     23 CL   UNL     1      30.658  -0.183  53.615  0.00  0.00    +0.000 Cl
ATOM     24  C   UNL     1      28.255  -1.199  52.940  0.00  0.00    +0.000 A 
ATOM     25  C   UNL     1      26.860  -1.274  53.010  0.00  0.00    +0.000 A 
ATOM     26 CL   UNL     1      26.102  -2.310  51.850  0.00  0.00    +0.000 Cl
ENDBRANCH  18  19
ENDBRANCH   1  18
TORSDOF 3
ENDMDL
MODEL 7
REMARK VINA RESULT:    -8.069      3.952      8.100
REMARK INTER + INTRA:         -10.134
REMARK INTER:                 -10.890
REMARK INTRA:                   0.757
REMARK UNBOUND:                -0.650
REMARK  Name = 
REMARK  3 active torsions:
REMARK  status: ('A' for Active; 'I' for Inactive)
REMARK    1  A    between atoms: C_2  and  C_3
REMARK    2  A    between atoms: C_2  and  C_11
REMARK    3  A    between atoms: C_14  and  N_15
REMARK                            x       y       z     vdW  Elec       q    Type
REMARK                         _______ _______ _______ _____ _____    ______ ____
ROOT
ATOM      1  C   UNL     1      24.523   1.041  52.200  0.00  0.00    +0.000 A 
ATOM      2  C   UNL     1      24.144   0.174  53.232  0.00  0.00    +0.000 A 
ATOM      3  C   UNL     1      22.831  -0.268  53.347  0.00  0.00    +0.000 A 
ATOM      4  C   UNL     1      21.831   0.205  52.497  0.00  0.00    +0.000 A 
ATOM      5  C   UNL     1      22.205   1.089  51.470  0.00  0.00    +0.000 A 
ATOM      6  C   UNL     1      23.536   1.515  51.325  0.00  0.00    +0.000 A 
ATOM      7 CL   UNL     1      23.851   2.616  50.028  0.00  0.00    +0.000 Cl
ENDROOT
BRANCH   4   8
ATOM      8  N   UNL     1      20.468  -0.186  52.676  0.00  0.00    +0.000 N 
ATOM      9  N   UNL     1      19.589   0.422  51.799  0.00  0.00    +0.000 NA
ATOM     10  C   UNL     1      18.339   0.100  51.878  0.00  0.00    +0.000 A 
ATOM     11  C   UNL     1      17.808  -0.865  52.879  0.00  0.00    +0.000 A 
ATOM     12  O   UNL     1      16.610  -1.122  52.901  0.00  0.00    +0.000 OA
ATOM     13  N   UNL     1      18.732  -1.391  53.713  0.00  0.00    +0.000 N 
ATOM     14  C   UNL     1      20.066  -1.094  53.674  0.00  0.00    +0.000 A 
ATOM     15  O   UNL     1      20.782  -1.619  54.527  0.00  0.00    +0.000 OA
ATOM     16  H   UNL     1      18.423  -2.031  54.394  0.00  0.00    +0.000 HD
ENDBRANCH   4   8
BRANCH   1  18
ATOM     17  O   UNL     1      26.263   2.536  51.667  0.00  0.00    +0.000 OA
ATOM     18  C   UNL     1      25.956   1.427  52.095  0.00  0.00    +0.000 C 
BRANCH  18  19
ATOM     19  C   UNL     1      27.051   0.568  52.633  0.00  0.00    +0.000 A 
ATOM     20  C   UNL     1      26.875  -0.816  52.460  0.00  0.00    +0.000 A 
ATOM     21  C   UNL     1      27.861  -1.717  52.860  0.00  0.00    +0.000 A 
ATOM     22  C   UNL     1      29.040  -1.240  53.421  0.00  0.00    +0.000 A 
ATOM     23 CL   UNL     1      30.266  -2.343  53.905  0.00  0.00    +0.000 Cl
ATOM     24  C   UNL     1      29.227   0.126  53.617  0.00  0.00    +0.000 A 
ATOM     25  C   UNL     1      28.220   1.030  53.262  0.00  0.00    +0.000 A 
ATOM     26 CL   UNL     1      28.501   2.681  53.701  0.00  0.00    +0.000 Cl
ENDBRANCH  18  19
ENDBRANCH   1  18
TORSDOF 3
ENDMDL
MODEL 8
REMARK VINA RESULT:    -7.999      2.698      3.768
REMARK INTER + INTRA:         -10.052
REMARK INTER:                  -9.045
REMARK INTRA:                  -1.007
REMARK UNBOUND:                -0.650
REMARK  Name = 
REMARK  3 active torsions:
REMARK  status: ('A' for Active; 'I' for Inactive)
REMARK    1  A    between atoms: C_2  and  C_3
REMARK    2  A    between atoms: C_2  and  C_11
REMARK    3  A    between atoms: C_14  and  N_15
REMARK                            x       y       z     vdW  Elec       q    Type
REMARK                         _______ _______ _______ _____ _____    ______ ____
ROOT
ATOM      1  C   UNL     1      24.246   3.828  51.613  0.00  0.00    +0.000 A 
ATOM      2  C   UNL     1      24.178   3.175  52.849  0.00  0.00    +0.000 A 
ATOM      3  C   UNL     1      25.201   2.334  53.271  0.00  0.00    +0.000 A 
ATOM      4  C   UNL     1      26.285   2.043  52.442  0.00  0.00    +0.000 A 
ATOM      5  C   UNL     1      26.348   2.684  51.193  0.00  0.00    +0.000 A 
ATOM      6  C   UNL     1      25.335   3.562  50.772  0.00  0.00    +0.000 A 
ATOM      7 CL   UNL     1      25.534   4.267  49.205  0.00  0.00    +0.000 Cl
ENDROOT
BRANCH   4   8
ATOM      8  N   UNL     1      27.290   1.109  52.846  0.00  0.00    +0.000 N 
ATOM      9  N   UNL     1      26.944  -0.213  52.640  0.00  0.00    +0.000 NA
ATOM     10  C   UNL     1      27.811  -1.119  52.955  0.00  0.00    +0.000 A 
ATOM     11  C   UNL     1      29.139  -0.805  53.548  0.00  0.00    +0.000 A 
ATOM     12  O   UNL     1      29.912  -1.714  53.827  0.00  0.00    +0.000 OA
ATOM     13  N   UNL     1      29.383   0.510  53.740  0.00  0.00    +0.000 N 
ATOM     14  C   UNL     1      28.509   1.513  53.422  0.00  0.00    +0.000 A 
ATOM     15  O   UNL     1      28.853   2.663  53.695  0.00  0.00    +0.000 OA
ATOM     16  H   UNL     1      30.249   0.764  54.135  0.00  0.00    +0.000 HD
ENDBRANCH   4   8
BRANCH   1  18
ATOM     17  O   UNL     1      23.229   5.951  51.546  0.00  0.00    +0.000 OA
ATOM     18  C   UNL     1      23.147   4.763  51.249  0.00  0.00    +0.000 C 
BRANCH  18  19
ATOM     19  C   UNL     1      21.997   4.343  50.397  0.00  0.00    +0.000 A 
ATOM     20  C   UNL     1      22.057   4.755  49.054  0.00  0.00    +0.000 A 
ATOM     21  C   UNL     1      21.075   4.367  48.143  0.00  0.00    +0.000 A 
ATOM     22  C   UNL     1      20.033   3.549  48.564  0.00  0.00    +0.000 A 
ATOM     23 CL   UNL     1      18.825   3.056  47.445  0.00  0.00    +0.000 Cl
ATOM     24  C   UNL     1      19.945   3.144  49.894  0.00  0.00    +0.000 A 
ATOM     25  C   UNL     1      20.902   3.570  50.821  0.00  0.00    +0.000 A 
ATOM     26 CL   UNL     1      20.598   3.136  52.469  0.00  0.00    +0.000 Cl
ENDBRANCH  18  19
ENDBRANCH   1  18
TORSDOF 3
ENDMDL
MODEL 9
REMARK VINA RESULT:    -7.841      6.633      8.401
REMARK INTER + INTRA:          -9.866
REMARK INTER:                  -9.047
REMARK INTRA:                  -0.818
REMARK UNBOUND:                -0.650
REMARK  Name = 
REMARK  3 active torsions:
REMARK  status: ('A' for Active; 'I' for Inactive)
REMARK    1  A    between atoms: C_2  and  C_3
REMARK    2  A    between atoms: C_2  and  C_11
REMARK    3  A    between atoms: C_14  and  N_15
REMARK                            x       y       z     vdW  Elec       q    Type
REMARK                         _______ _______ _______ _____ _____    ______ ____
ROOT
ATOM      1  C   UNL     1      25.952   5.543  49.291  0.00  0.00    +0.000 A 
ATOM      2  C   UNL     1      26.508   4.266  49.154  0.00  0.00    +0.000 A 
ATOM      3  C   UNL     1      26.048   3.200  49.919  0.00  0.00    +0.000 A 
ATOM      4  C   UNL     1      25.083   3.385  50.909  0.00  0.00    +0.000 A 
ATOM      5  C   UNL     1      24.535   4.670  51.062  0.00  0.00    +0.000 A 
ATOM      6  C   UNL     1      24.969   5.746  50.270  0.00  0.00    +0.000 A 
ATOM      7 CL   UNL     1      24.220   7.275  50.576  0.00  0.00    +0.000 Cl
ENDROOT
BRANCH   4   8
ATOM      8  N   UNL     1      24.677   2.303  51.751  0.00  0.00    +0.000 N 
ATOM      9  N   UNL     1      23.431   1.788  51.443  0.00  0.00    +0.000 NA
ATOM     10  C   UNL     1      23.002   0.788  52.141  0.00  0.00    +0.000 A 
ATOM     11  C   UNL     1      23.771   0.192  53.267  0.00  0.00    +0.000 A 
ATOM     12  O   UNL     1      23.303  -0.754  53.891  0.00  0.00    +0.000 OA
ATOM     13  N   UNL     1      24.965   0.773  53.516  0.00  0.00    +0.000 N 
ATOM     14  C   UNL     1      25.473   1.828  52.810  0.00  0.00    +0.000 A 
ATOM     15  O   UNL     1      26.557   2.281  53.181  0.00  0.00    +0.000 OA
ATOM     16  H   UNL     1      25.506   0.413  54.256  0.00  0.00    +0.000 HD
ENDBRANCH   4   8
BRANCH   1  18
ATOM     17  O   UNL     1      25.676   7.178  47.619  0.00  0.00    +0.000 OA
ATOM     18  C   UNL     1      26.447   6.626  48.399  0.00  0.00    +0.000 C 
BRANCH  18  19
ATOM     19  C   UNL     1      27.827   7.181  48.514  0.00  0.00    +0.000 A 
ATOM     20  C   UNL     1      28.824   6.470  47.823  0.00  0.00    +0.000 A 
ATOM     21  C   UNL     1      30.141   6.929  47.799  0.00  0.00    +0.000 A 
ATOM     22  C   UNL     1      30.468   8.112  48.451  0.00  0.00    +0.000 A 
ATOM     23 CL   UNL     1      32.087   8.690  48.416  0.00  0.00    +0.000 Cl
ATOM     24  C   UNL     1      29.499   8.821  49.157  0.00  0.00    +0.000 A 
ATOM     25  C   UNL     1      28.188   8.340  49.224  0.00  0.00    +0.000 A 
ATOM     26 CL   UNL     1      27.115   9.219  50.259  0.00  0.00    +0.000 Cl
ENDBRANCH  18  19
ENDBRANCH   1  18
TORSDOF 3
ENDMDL
