MODEL 1
REMARK VINA RESULT:    -9.133      0.000      0.000
REMARK INTER + INTRA:         -15.339
REMARK INTER:                 -13.671
REMARK INTRA:                  -1.668
REMARK UNBOUND:                -1.668
REMARK  Name = 
REMARK  10 active torsions:
REMARK  status: ('A' for Active; 'I' for Inactive)
REMARK    1  A    between atoms: C_2  and  C_3
REMARK    2  A    between atoms: C_3  and  N_4
REMARK    3  A    between atoms: N_4  and  C_5
REMARK    4  A    between atoms: N_4  and  C_18
REMARK    5  A    between atoms: C_5  and  C_6
REMARK    6  A    between atoms: C_11  and  C_12
REMARK    7  A    between atoms: C_14  and  O_15
REMARK    8  A    between atoms: C_21  and  C_22
REMARK    9  A    between atoms: N_24  and  C_25
REMARK   10  A    between atoms: C_25  and  C_26
REMARK                            x       y       z     vdW  Elec       q    Type
REMARK                         _______ _______ _______ _____ _____    ______ ____
ROOT
ATOM      1  N   UNL     1      23.534   3.667  51.577  0.00  0.00    +0.000 N 
ENDROOT
BRANCH   1   2
ATOM      2  C   UNL     1      24.509   4.163  50.717  0.00  0.00    +0.000 A 
ATOM      3  C   UNL     1      25.401   3.350  49.998  0.00  0.00    +0.000 A 
ATOM      4  C   UNL     1      26.442   3.882  49.208  0.00  0.00    +0.000 A 
ATOM      5  C   UNL     1      26.628   5.262  49.093  0.00  0.00    +0.000 A 
ATOM      6  C   UNL     1      25.699   6.087  49.718  0.00  0.00    +0.000 A 
ATOM      7  C   UNL     1      24.674   5.544  50.510  0.00  0.00    +0.000 A 
BRANCH   5   8
ATOM      8  C   UNL     1      27.798   5.795  48.316  0.00  0.00    +0.000 C 
ATOM      9  O   UNL     1      28.865   5.184  48.298  0.00  0.00    +0.000 OA
ATOM     10  N   UNL     1      27.618   6.996  47.660  0.00  0.00    +0.000 N 
ATOM     11  H   UNL     1      26.725   7.408  47.673  0.00  0.00    +0.000 HD
BRANCH  10  12
ATOM     12  C   UNL     1      28.683   7.683  46.953  0.00  0.00    +0.000 C 
BRANCH  12  13
ATOM     13  C   UNL     1      29.356   8.730  47.813  0.00  0.00    +0.000 A 
ATOM     14  C   UNL     1      28.966  10.065  47.724  0.00  0.00    +0.000 A 
ATOM     15  C   UNL     1      29.619  11.013  48.508  0.00  0.00    +0.000 A 
ATOM     16  C   UNL     1      30.643  10.609  49.356  0.00  0.00    +0.000 A 
ATOM     17  C   UNL     1      30.968   9.263  49.390  0.00  0.00    +0.000 A 
ATOM     18  N   UNL     1      30.358   8.319  48.638  0.00  0.00    +0.000 NA
ENDBRANCH  12  13
ENDBRANCH  10  12
ENDBRANCH   5   8
ENDBRANCH   1   2
BRANCH   1  19
ATOM     19  C   UNL     1      22.125   3.480  51.198  0.00  0.00    +0.000 C 
BRANCH  19  21
ATOM     20  C   UNL     1      21.784   1.061  50.108  0.00  0.00    +0.000 C 
ATOM     21  C   UNL     1      21.894   2.150  50.609  0.00  0.00    +0.000 C 
ENDBRANCH  19  21
ENDBRANCH   1  19
BRANCH   1  22
ATOM     22  C   UNL     1      23.863   3.278  52.962  0.00  0.00    +0.000 C 
BRANCH  22  23
ATOM     23  C   UNL     1      24.827   2.112  53.061  0.00  0.00    +0.000 A 
ATOM     24  C   UNL     1      24.474   0.793  52.762  0.00  0.00    +0.000 A 
ATOM     25  C   UNL     1      25.435  -0.224  52.757  0.00  0.00    +0.000 A 
ATOM     26  C   UNL     1      26.753   0.020  53.106  0.00  0.00    +0.000 A 
ATOM     27  N   UNL     1      27.628  -0.993  53.113  0.00  0.00    +0.000 NA
ATOM     28  C   UNL     1      28.882  -0.734  53.525  0.00  0.00    +0.000 A 
ATOM     29  C   UNL     1      29.819  -1.898  53.594  0.00  0.00    +0.000 C 
ATOM     30  N   UNL     1      29.334   0.469  53.916  0.00  0.00    +0.000 NA
ATOM     31  C   UNL     1      28.427   1.452  53.866  0.00  0.00    +0.000 A 
ATOM     32  C   UNL     1      27.106   1.318  53.467  0.00  0.00    +0.000 A 
ATOM     33  C   UNL     1      26.156   2.365  53.426  0.00  0.00    +0.000 A 
BRANCH  31  34
ATOM     34  O   UNL     1      28.911   2.646  54.306  0.00  0.00    +0.000 OA
ATOM     35  H   UNL     1      28.400   3.425  54.203  0.00  0.00    +0.000 HD
ENDBRANCH  31  34
ENDBRANCH  22  23
ENDBRANCH   1  22
TORSDOF 9
ENDMDL
MODEL 2
REMARK VINA RESULT:    -8.686      1.541      2.061
REMARK INTER + INTRA:         -14.670
REMARK INTER:                 -13.474
REMARK INTRA:                  -1.195
REMARK UNBOUND:                -1.668
REMARK  Name = 
REMARK  10 active torsions:
REMARK  status: ('A' for Active; 'I' for Inactive)
REMARK    1  A    between atoms: C_2  and  C_3
REMARK    2  A    between atoms: C_3  and  N_4
REMARK    3  A    between atoms: N_4  and  C_5
REMARK    4  A    between atoms: N_4  and  C_18
REMARK    5  A    between atoms: C_5  and  C_6
REMARK    6  A    between atoms: C_11  and  C_12
REMARK    7  A    between atoms: C_14  and  O_15
REMARK    8  A    between atoms: C_21  and  C_22
REMARK    9  A    between atoms: N_24  and  C_25
REMARK   10  A    between atoms: C_25  and  C_26
REMARK                            x       y       z     vdW  Elec       q    Type
REMARK                         _______ _______ _______ _____ _____    ______ ____
ROOT
ATOM      1  N   UNL     1      23.022   2.604  51.262  0.00  0.00    +0.000 N 
ENDROOT
BRANCH   1   2
ATOM      2  C   UNL     1      23.771   3.739  50.965  0.00  0.00    +0.000 A 
ATOM      3  C   UNL     1      23.581   4.983  51.588  0.00  0.00    +0.000 A 
ATOM      4  C   UNL     1      24.288   6.141  51.201  0.00  0.00    +0.000 A 
ATOM      5  C   UNL     1      25.233   6.098  50.172  0.00  0.00    +0.000 A 
ATOM      6  C   UNL     1      25.506   4.858  49.604  0.00  0.00    +0.000 A 
ATOM      7  C   UNL     1      24.786   3.716  49.993  0.00  0.00    +0.000 A 
BRANCH   5   8
ATOM      8  C   UNL     1      25.905   7.365  49.722  0.00  0.00    +0.000 C 
ATOM      9  O   UNL     1      25.290   8.429  49.721  0.00  0.00    +0.000 OA
ATOM     10  N   UNL     1      27.214   7.262  49.298  0.00  0.00    +0.000 N 
ATOM     11  H   UNL     1      27.663   6.389  49.372  0.00  0.00    +0.000 HD
BRANCH  10  12
ATOM     12  C   UNL     1      27.961   8.375  48.744  0.00  0.00    +0.000 C 
BRANCH  12  13
ATOM     13  C   UNL     1      29.424   8.041  48.549  0.00  0.00    +0.000 A 
ATOM     14  C   UNL     1      29.802   7.066  47.629  0.00  0.00    +0.000 A 
ATOM     15  C   UNL     1      31.153   6.759  47.486  0.00  0.00    +0.000 A 
ATOM     16  C   UNL     1      32.090   7.429  48.263  0.00  0.00    +0.000 A 
ATOM     17  C   UNL     1      31.635   8.388  49.152  0.00  0.00    +0.000 A 
ATOM     18  N   UNL     1      30.329   8.705  49.318  0.00  0.00    +0.000 NA
ENDBRANCH  12  13
ENDBRANCH  10  12
ENDBRANCH   5   8
ENDBRANCH   1   2
BRANCH   1  19
ATOM     19  C   UNL     1      22.152   1.920  50.292  0.00  0.00    +0.000 C 
BRANCH  19  21
ATOM     20  C   UNL     1      20.377   0.316  51.489  0.00  0.00    +0.000 C 
ATOM     21  C   UNL     1      21.151   1.073  50.964  0.00  0.00    +0.000 C 
ENDBRANCH  19  21
ENDBRANCH   1  19
BRANCH   1  22
ATOM     22  C   UNL     1      23.060   1.992  52.604  0.00  0.00    +0.000 C 
BRANCH  22  23
ATOM     23  C   UNL     1      24.310   1.176  52.873  0.00  0.00    +0.000 A 
ATOM     24  C   UNL     1      24.355  -0.219  52.778  0.00  0.00    +0.000 A 
ATOM     25  C   UNL     1      25.564  -0.908  52.921  0.00  0.00    +0.000 A 
ATOM     26  C   UNL     1      26.745  -0.251  53.223  0.00  0.00    +0.000 A 
ATOM     27  N   UNL     1      27.869  -0.961  53.379  0.00  0.00    +0.000 NA
ATOM     28  C   UNL     1      28.983  -0.298  53.741  0.00  0.00    +0.000 A 
ATOM     29  C   UNL     1      30.207  -1.124  53.980  0.00  0.00    +0.000 C 
ATOM     30  N   UNL     1      29.061   1.027  53.944  0.00  0.00    +0.000 NA
ATOM     31  C   UNL     1      27.916   1.693  53.751  0.00  0.00    +0.000 A 
ATOM     32  C   UNL     1      26.703   1.132  53.383  0.00  0.00    +0.000 A 
ATOM     33  C   UNL     1      25.498   1.847  53.189  0.00  0.00    +0.000 A 
BRANCH  31  34
ATOM     34  O   UNL     1      28.026   3.026  54.004  0.00  0.00    +0.000 OA
ATOM     35  H   UNL     1      27.372   3.618  53.689  0.00  0.00    +0.000 HD
ENDBRANCH  31  34
ENDBRANCH  22  23
ENDBRANCH   1  22
TORSDOF 9
ENDMDL
MODEL 3
REMARK VINA RESULT:    -8.587      5.521     10.559
REMARK INTER + INTRA:         -14.523
REMARK INTER:                 -13.281
REMARK INTRA:                  -1.241
REMARK UNBOUND:                -1.668
REMARK  Name = 
REMARK  10 active torsions:
REMARK  status: ('A' for Active; 'I' for Inactive)
REMARK    1  A    between atoms: C_2  and  C_3
REMARK    2  A    between atoms: C_3  and  N_4
REMARK    3  A    between atoms: N_4  and  C_5
REMARK    4  A    between atoms: N_4  and  C_18
REMARK    5  A    between atoms: C_5  and  C_6
REMARK    6  A    between atoms: C_11  and  C_12
REMARK    7  A    between atoms: C_14  and  O_15
REMARK    8  A    between atoms: C_21  and  C_22
REMARK    9  A    between atoms: N_24  and  C_25
REMARK   10  A    between atoms: C_25  and  C_26
REMARK                            x       y       z     vdW  Elec       q    Type
REMARK                         _______ _______ _______ _____ _____    ______ ____
ROOT
ATOM      1  N   UNL     1      22.200   1.383  51.717  0.00  0.00    +0.000 N 
ENDROOT
BRANCH   1   2
ATOM      2  C   UNL     1      20.973   0.750  51.902  0.00  0.00    +0.000 A 
ATOM      3  C   UNL     1      19.912   0.825  50.986  0.00  0.00    +0.000 A 
ATOM      4  C   UNL     1      18.647   0.255  51.243  0.00  0.00    +0.000 A 
ATOM      5  C   UNL     1      18.393  -0.431  52.434  0.00  0.00    +0.000 A 
ATOM      6  C   UNL     1      19.456  -0.599  53.315  0.00  0.00    +0.000 A 
ATOM      7  C   UNL     1      20.707  -0.016  53.050  0.00  0.00    +0.000 A 
BRANCH   5   8
ATOM      8  C   UNL     1      17.012  -0.949  52.717  0.00  0.00    +0.000 C 
ATOM      9  O   UNL     1      16.853  -2.064  53.211  0.00  0.00    +0.000 OA
ATOM     10  N   UNL     1      15.954  -0.130  52.377  0.00  0.00    +0.000 N 
ATOM     11  H   UNL     1      16.152   0.770  52.032  0.00  0.00    +0.000 HD
BRANCH  10  12
ATOM     12  C   UNL     1      14.566  -0.532  52.498  0.00  0.00    +0.000 C 
BRANCH  12  13
ATOM     13  C   UNL     1      13.729   0.513  53.204  0.00  0.00    +0.000 A 
ATOM     14  C   UNL     1      12.842   0.136  54.210  0.00  0.00    +0.000 A 
ATOM     15  C   UNL     1      12.065   1.114  54.827  0.00  0.00    +0.000 A 
ATOM     16  C   UNL     1      12.189   2.438  54.425  0.00  0.00    +0.000 A 
ATOM     17  C   UNL     1      13.095   2.732  53.420  0.00  0.00    +0.000 A 
ATOM     18  N   UNL     1      13.861   1.805  52.798  0.00  0.00    +0.000 NA
ENDBRANCH  12  13
ENDBRANCH  10  12
ENDBRANCH   5   8
ENDBRANCH   1   2
BRANCH   1  19
ATOM     19  C   UNL     1      22.792   1.651  50.398  0.00  0.00    +0.000 C 
BRANCH  19  21
ATOM     20  C   UNL     1      23.450   4.224  50.082  0.00  0.00    +0.000 C 
ATOM     21  C   UNL     1      23.111   3.078  50.226  0.00  0.00    +0.000 C 
ENDBRANCH  19  21
ENDBRANCH   1  19
BRANCH   1  22
ATOM     22  C   UNL     1      23.002   1.845  52.866  0.00  0.00    +0.000 C 
BRANCH  22  23
ATOM     23  C   UNL     1      24.297   1.080  53.061  0.00  0.00    +0.000 A 
ATOM     24  C   UNL     1      24.404  -0.305  52.900  0.00  0.00    +0.000 A 
ATOM     25  C   UNL     1      25.648  -0.941  52.976  0.00  0.00    +0.000 A 
ATOM     26  C   UNL     1      26.806  -0.241  53.275  0.00  0.00    +0.000 A 
ATOM     27  N   UNL     1      27.966  -0.902  53.366  0.00  0.00    +0.000 NA
ATOM     28  C   UNL     1      29.058  -0.203  53.727  0.00  0.00    +0.000 A 
ATOM     29  C   UNL     1      30.326  -0.978  53.893  0.00  0.00    +0.000 C 
ATOM     30  N   UNL     1      29.079   1.114  53.990  0.00  0.00    +0.000 NA
ATOM     31  C   UNL     1      27.899   1.731  53.860  0.00  0.00    +0.000 A 
ATOM     32  C   UNL     1      26.703   1.129  53.501  0.00  0.00    +0.000 A 
ATOM     33  C   UNL     1      25.461   1.793  53.375  0.00  0.00    +0.000 A 
BRANCH  31  34
ATOM     34  O   UNL     1      27.953   3.056  54.172  0.00  0.00    +0.000 OA
ATOM     35  H   UNL     1      27.428   3.394  54.870  0.00  0.00    +0.000 HD
ENDBRANCH  31  34
ENDBRANCH  22  23
ENDBRANCH   1  22
TORSDOF 9
ENDMDL
MODEL 4
REMARK VINA RESULT:    -8.424      3.072      5.839
REMARK INTER + INTRA:         -14.278
REMARK INTER:                 -13.226
REMARK INTRA:                  -1.052
REMARK UNBOUND:                -1.668
REMARK  Name = 
REMARK  10 active torsions:
REMARK  status: ('A' for Active; 'I' for Inactive)
REMARK    1  A    between atoms: C_2  and  C_3
REMARK    2  A    between atoms: C_3  and  N_4
REMARK    3  A    between atoms: N_4  and  C_5
REMARK    4  A    between atoms: N_4  and  C_18
REMARK    5  A    between atoms: C_5  and  C_6
REMARK    6  A    between atoms: C_11  and  C_12
REMARK    7  A    between atoms: C_14  and  O_15
REMARK    8  A    between atoms: C_21  and  C_22
REMARK    9  A    between atoms: N_24  and  C_25
REMARK   10  A    between atoms: C_25  and  C_26
REMARK                            x       y       z     vdW  Elec       q    Type
REMARK                         _______ _______ _______ _____ _____    ______ ____
ROOT
ATOM      1  N   UNL     1      25.632   0.531  53.810  0.00  0.00    +0.000 N 
ENDROOT
BRANCH   1   2
ATOM      2  C   UNL     1      25.378   1.555  52.901  0.00  0.00    +0.000 A 
ATOM      3  C   UNL     1      25.986   1.645  51.638  0.00  0.00    +0.000 A 
ATOM      4  C   UNL     1      25.785   2.744  50.777  0.00  0.00    +0.000 A 
ATOM      5  C   UNL     1      24.949   3.803  51.142  0.00  0.00    +0.000 A 
ATOM      6  C   UNL     1      24.263   3.691  52.346  0.00  0.00    +0.000 A 
ATOM      7  C   UNL     1      24.482   2.596  53.199  0.00  0.00    +0.000 A 
BRANCH   5   8
ATOM      8  C   UNL     1      24.825   5.000  50.242  0.00  0.00    +0.000 C 
ATOM      9  O   UNL     1      24.107   4.959  49.245  0.00  0.00    +0.000 OA
ATOM     10  N   UNL     1      25.567   6.114  50.578  0.00  0.00    +0.000 N 
ATOM     11  H   UNL     1      26.082   6.098  51.416  0.00  0.00    +0.000 HD
BRANCH  10  12
ATOM     12  C   UNL     1      25.627   7.308  49.755  0.00  0.00    +0.000 C 
BRANCH  12  13
ATOM     13  C   UNL     1      26.987   7.495  49.118  0.00  0.00    +0.000 A 
ATOM     14  C   UNL     1      27.503   6.517  48.272  0.00  0.00    +0.000 A 
ATOM     15  C   UNL     1      28.768   6.701  47.718  0.00  0.00    +0.000 A 
ATOM     16  C   UNL     1      29.485   7.851  48.023  0.00  0.00    +0.000 A 
ATOM     17  C   UNL     1      28.900   8.778  48.869  0.00  0.00    +0.000 A 
ATOM     18  N   UNL     1      27.677   8.626  49.428  0.00  0.00    +0.000 NA
ENDBRANCH  12  13
ENDBRANCH  10  12
ENDBRANCH   5   8
ENDBRANCH   1   2
BRANCH   1  19
ATOM     19  C   UNL     1      26.523   0.669  54.972  0.00  0.00    +0.000 C 
BRANCH  19  21
ATOM     20  C   UNL     1      29.068   0.045  54.434  0.00  0.00    +0.000 C 
ATOM     21  C   UNL     1      27.911   0.307  54.637  0.00  0.00    +0.000 C 
ENDBRANCH  19  21
ENDBRANCH   1  19
BRANCH   1  22
ATOM     22  C   UNL     1      24.997  -0.793  53.665  0.00  0.00    +0.000 C 
BRANCH  22  23
ATOM     23  C   UNL     1      23.484  -0.743  53.570  0.00  0.00    +0.000 A 
ATOM     24  C   UNL     1      22.634  -1.102  54.621  0.00  0.00    +0.000 A 
ATOM     25  C   UNL     1      21.250  -0.924  54.517  0.00  0.00    +0.000 A 
ATOM     26  C   UNL     1      20.664  -0.448  53.357  0.00  0.00    +0.000 A 
ATOM     27  N   UNL     1      19.332  -0.323  53.298  0.00  0.00    +0.000 NA
ATOM     28  C   UNL     1      18.791   0.075  52.132  0.00  0.00    +0.000 A 
ATOM     29  C   UNL     1      17.298   0.136  52.072  0.00  0.00    +0.000 C 
ATOM     30  N   UNL     1      19.485   0.375  51.022  0.00  0.00    +0.000 NA
ATOM     31  C   UNL     1      20.812   0.258  51.141  0.00  0.00    +0.000 A 
ATOM     32  C   UNL     1      21.493  -0.145  52.279  0.00  0.00    +0.000 A 
ATOM     33  C   UNL     1      22.897  -0.272  52.389  0.00  0.00    +0.000 A 
BRANCH  31  34
ATOM     34  O   UNL     1      21.478   0.531  49.984  0.00  0.00    +0.000 OA
ATOM     35  H   UNL     1      21.928   1.346  49.885  0.00  0.00    +0.000 HD
ENDBRANCH  31  34
ENDBRANCH  22  23
ENDBRANCH   1  22
TORSDOF 9
ENDMDL
MODEL 5
REMARK VINA RESULT:    -8.395      5.371     10.016
REMARK INTER + INTRA:         -14.234
REMARK INTER:                 -12.999
REMARK INTRA:                  -1.235
REMARK UNBOUND:                -1.668
REMARK  Name = 
REMARK  10 active torsions:
REMARK  status: ('A' for Active; 'I' for Inactive)
REMARK    1  A    between atoms: C_2  and  C_3
REMARK    2  A    between atoms: C_3  and  N_4
REMARK    3  A    between atoms: N_4  and  C_5
REMARK    4  A    between atoms: N_4  and  C_18
REMARK    5  A    between atoms: C_5  and  C_6
REMARK    6  A    between atoms: C_11  and  C_12
REMARK    7  A    between atoms: C_14  and  O_15
REMARK    8  A    between atoms: C_21  and  C_22
REMARK    9  A    between atoms: N_24  and  C_25
REMARK   10  A    between atoms: C_25  and  C_26
REMARK                            x       y       z     vdW  Elec       q    Type
REMARK                         _______ _______ _______ _____ _____    ______ ____
ROOT
ATOM      1  N   UNL     1      22.251   2.614  51.532  0.00  0.00    +0.000 N 
ENDROOT
BRANCH   1   2
ATOM      2  C   UNL     1      20.930   2.177  51.501  0.00  0.00    +0.000 A 
ATOM      3  C   UNL     1      19.825   3.040  51.418  0.00  0.00    +0.000 A 
ATOM      4  C   UNL     1      18.494   2.576  51.486  0.00  0.00    +0.000 A 
ATOM      5  C   UNL     1      18.211   1.215  51.628  0.00  0.00    +0.000 A 
ATOM      6  C   UNL     1      19.286   0.333  51.617  0.00  0.00    +0.000 A 
ATOM      7  C   UNL     1      20.606   0.810  51.560  0.00  0.00    +0.000 A 
BRANCH   5   8
ATOM      8  C   UNL     1      16.788   0.761  51.787  0.00  0.00    +0.000 C 
ATOM      9  O   UNL     1      16.530  -0.424  51.983  0.00  0.00    +0.000 OA
ATOM     10  N   UNL     1      15.808   1.727  51.677  0.00  0.00    +0.000 N 
ATOM     11  H   UNL     1      16.085   2.665  51.570  0.00  0.00    +0.000 HD
BRANCH  10  12
ATOM     12  C   UNL     1      14.389   1.427  51.709  0.00  0.00    +0.000 C 
BRANCH  12  13
ATOM     13  C   UNL     1      13.642   2.303  52.692  0.00  0.00    +0.000 A 
ATOM     14  C   UNL     1      13.784   3.688  52.642  0.00  0.00    +0.000 A 
ATOM     15  C   UNL     1      13.106   4.470  53.574  0.00  0.00    +0.000 A 
ATOM     16  C   UNL     1      12.307   3.855  54.529  0.00  0.00    +0.000 A 
ATOM     17  C   UNL     1      12.214   2.473  54.509  0.00  0.00    +0.000 A 
ATOM     18  N   UNL     1      12.864   1.685  53.622  0.00  0.00    +0.000 NA
ENDBRANCH  12  13
ENDBRANCH  10  12
ENDBRANCH   5   8
ENDBRANCH   1   2
BRANCH   1  19
ATOM     19  C   UNL     1      23.016   2.994  50.334  0.00  0.00    +0.000 C 
BRANCH  19  21
ATOM     20  C   UNL     1      22.068   1.709  48.189  0.00  0.00    +0.000 C 
ATOM     21  C   UNL     1      22.536   2.285  49.136  0.00  0.00    +0.000 C 
ENDBRANCH  19  21
ENDBRANCH   1  19
BRANCH   1  22
ATOM     22  C   UNL     1      22.986   2.736  52.805  0.00  0.00    +0.000 C 
BRANCH  22  23
ATOM     23  C   UNL     1      24.131   1.752  52.952  0.00  0.00    +0.000 A 
ATOM     24  C   UNL     1      23.997   0.377  52.737  0.00  0.00    +0.000 A 
ATOM     25  C   UNL     1      25.113  -0.466  52.772  0.00  0.00    +0.000 A 
ATOM     26  C   UNL     1      26.376   0.011  53.080  0.00  0.00    +0.000 A 
ATOM     27  N   UNL     1      27.406  -0.842  53.129  0.00  0.00    +0.000 NA
ATOM     28  C   UNL     1      28.604  -0.357  53.500  0.00  0.00    +0.000 A 
ATOM     29  C   UNL     1      29.721  -1.345  53.618  0.00  0.00    +0.000 C 
ATOM     30  N   UNL     1      28.855   0.926  53.812  0.00  0.00    +0.000 NA
ATOM     31  C   UNL     1      27.798   1.741  53.723  0.00  0.00    +0.000 A 
ATOM     32  C   UNL     1      26.513   1.369  53.359  0.00  0.00    +0.000 A 
ATOM     33  C   UNL     1      25.403   2.241  53.276  0.00  0.00    +0.000 A 
BRANCH  31  34
ATOM     34  O   UNL     1      28.082   3.023  54.084  0.00  0.00    +0.000 OA
ATOM     35  H   UNL     1      27.519   3.478  54.679  0.00  0.00    +0.000 HD
ENDBRANCH  31  34
ENDBRANCH  22  23
ENDBRANCH   1  22
TORSDOF 9
ENDMDL
MODEL 6
REMARK VINA RESULT:    -8.303      2.540      4.365
REMARK INTER + INTRA:         -14.096
REMARK INTER:                 -12.724
REMARK INTRA:                  -1.373
REMARK UNBOUND:                -1.668
REMARK  Name = 
REMARK  10 active torsions:
REMARK  status: ('A' for Active; 'I' for Inactive)
REMARK    1  A    between atoms: C_2  and  C_3
REMARK    2  A    between atoms: C_3  and  N_4
REMARK    3  A    between atoms: N_4  and  C_5
REMARK    4  A    between atoms: N_4  and  C_18
REMARK    5  A    between atoms: C_5  and  C_6
REMARK    6  A    between atoms: C_11  and  C_12
REMARK    7  A    between atoms: C_14  and  O_15
REMARK    8  A    between atoms: C_21  and  C_22
REMARK    9  A    between atoms: N_24  and  C_25
REMARK   10  A    between atoms: C_25  and  C_26
REMARK                            x       y       z     vdW  Elec       q    Type
REMARK                         _______ _______ _______ _____ _____    ______ ____
ROOT
ATOM      1  N   UNL     1      21.248  -0.017  52.852  0.00  0.00    +0.000 N 
ENDROOT
BRANCH   1   2
ATOM      2  C   UNL     1      21.518   1.028  51.974  0.00  0.00    +0.000 A 
ATOM      3  C   UNL     1      21.636   0.869  50.584  0.00  0.00    +0.000 A 
ATOM      4  C   UNL     1      22.007   1.927  49.728  0.00  0.00    +0.000 A 
ATOM      5  C   UNL     1      22.264   3.206  50.231  0.00  0.00    +0.000 A 
ATOM      6  C   UNL     1      22.061   3.411  51.592  0.00  0.00    +0.000 A 
ATOM      7  C   UNL     1      21.703   2.344  52.434  0.00  0.00    +0.000 A 
BRANCH   5   8
ATOM      8  C   UNL     1      22.742   4.289  49.307  0.00  0.00    +0.000 C 
ATOM      9  O   UNL     1      22.408   4.292  48.124  0.00  0.00    +0.000 OA
ATOM     10  N   UNL     1      23.579   5.246  49.845  0.00  0.00    +0.000 N 
ATOM     11  H   UNL     1      23.766   5.214  50.811  0.00  0.00    +0.000 HD
BRANCH  10  12
ATOM     12  C   UNL     1      24.198   6.295  49.057  0.00  0.00    +0.000 C 
BRANCH  12  13
ATOM     13  C   UNL     1      25.661   6.017  48.785  0.00  0.00    +0.000 A 
ATOM     14  C   UNL     1      26.201   4.767  49.078  0.00  0.00    +0.000 A 
ATOM     15  C   UNL     1      27.555   4.544  48.842  0.00  0.00    +0.000 A 
ATOM     16  C   UNL     1      28.335   5.570  48.323  0.00  0.00    +0.000 A 
ATOM     17  C   UNL     1      27.722   6.782  48.054  0.00  0.00    +0.000 A 
ATOM     18  N   UNL     1      26.411   7.033  48.277  0.00  0.00    +0.000 NA
ENDBRANCH  12  13
ENDBRANCH  10  12
ENDBRANCH   5   8
ENDBRANCH   1   2
BRANCH   1  19
ATOM     19  C   UNL     1      20.007  -0.130  53.634  0.00  0.00    +0.000 C 
BRANCH  19  21
ATOM     20  C   UNL     1      17.857  -0.647  52.129  0.00  0.00    +0.000 C 
ATOM     21  C   UNL     1      18.850  -0.434  52.775  0.00  0.00    +0.000 C 
ENDBRANCH  19  21
ENDBRANCH   1  19
BRANCH   1  22
ATOM     22  C   UNL     1      22.213  -1.116  53.052  0.00  0.00    +0.000 C 
BRANCH  22  23
ATOM     23  C   UNL     1      23.570  -0.660  53.552  0.00  0.00    +0.000 A 
ATOM     24  C   UNL     1      24.084  -1.003  54.807  0.00  0.00    +0.000 A 
ATOM     25  C   UNL     1      25.389  -0.652  55.167  0.00  0.00    +0.000 A 
ATOM     26  C   UNL     1      26.199   0.097  54.329  0.00  0.00    +0.000 A 
ATOM     27  N   UNL     1      27.430   0.431  54.733  0.00  0.00    +0.000 NA
ATOM     28  C   UNL     1      28.163   1.219  53.925  0.00  0.00    +0.000 A 
ATOM     29  C   UNL     1      29.506   1.638  54.432  0.00  0.00    +0.000 C 
ATOM     30  N   UNL     1      27.760   1.685  52.731  0.00  0.00    +0.000 NA
ATOM     31  C   UNL     1      26.533   1.302  52.363  0.00  0.00    +0.000 A 
ATOM     32  C   UNL     1      25.677   0.500  53.102  0.00  0.00    +0.000 A 
ATOM     33  C   UNL     1      24.378   0.108  52.704  0.00  0.00    +0.000 A 
BRANCH  31  34
ATOM     34  O   UNL     1      26.146   1.826  51.167  0.00  0.00    +0.000 OA
ATOM     35  H   UNL     1      26.730   2.380  50.687  0.00  0.00    +0.000 HD
ENDBRANCH  31  34
ENDBRANCH  22  23
ENDBRANCH   1  22
TORSDOF 9
ENDMDL
MODEL 7
REMARK VINA RESULT:    -8.272      2.938      4.109
REMARK INTER + INTRA:         -14.050
REMARK INTER:                 -12.672
REMARK INTRA:                  -1.378
REMARK UNBOUND:                -1.668
REMARK  Name = 
REMARK  10 active torsions:
REMARK  status: ('A' for Active; 'I' for Inactive)
REMARK    1  A    between atoms: C_2  and  C_3
REMARK    2  A    between atoms: C_3  and  N_4
REMARK    3  A    between atoms: N_4  and  C_5
REMARK    4  A    between atoms: N_4  and  C_18
REMARK    5  A    between atoms: C_5  and  C_6
REMARK    6  A    between atoms: C_11  and  C_12
REMARK    7  A    between atoms: C_14  and  O_15
REMARK    8  A    between atoms: C_21  and  C_22
REMARK    9  A    between atoms: N_24  and  C_25
REMARK   10  A    between atoms: C_25  and  C_26
REMARK                            x       y       z     vdW  Elec       q    Type
REMARK                         _______ _______ _______ _____ _____    ______ ____
ROOT
ATOM      1  N   UNL     1      23.955   4.666  49.509  0.00  0.00    +0.000 N 
ENDROOT
BRANCH   1   2
ATOM      2  C   UNL     1      25.194   5.128  49.077  0.00  0.00    +0.000 A 
ATOM      3  C   UNL     1      26.370   4.362  49.121  0.00  0.00    +0.000 A 
ATOM      4  C   UNL     1      27.631   4.888  48.768  0.00  0.00    +0.000 A 
ATOM      5  C   UNL     1      27.767   6.211  48.338  0.00  0.00    +0.000 A 
ATOM      6  C   UNL     1      26.604   6.960  48.196  0.00  0.00    +0.000 A 
ATOM      7  C   UNL     1      25.357   6.427  48.563  0.00  0.00    +0.000 A 
BRANCH   5   8
ATOM      8  C   UNL     1      29.133   6.767  48.054  0.00  0.00    +0.000 C 
ATOM      9  O   UNL     1      29.578   6.771  46.908  0.00  0.00    +0.000 OA
ATOM     10  N   UNL     1      29.853   7.240  49.133  0.00  0.00    +0.000 N 
ATOM     11  H   UNL     1      29.418   7.254  50.016  0.00  0.00    +0.000 HD
BRANCH  10  12
ATOM     12  C   UNL     1      31.220   7.714  49.031  0.00  0.00    +0.000 C 
BRANCH  12  13
ATOM     13  C   UNL     1      31.289   9.189  48.698  0.00  0.00    +0.000 A 
ATOM     14  C   UNL     1      30.583  10.113  49.465  0.00  0.00    +0.000 A 
ATOM     15  C   UNL     1      30.642  11.462  49.122  0.00  0.00    +0.000 A 
ATOM     16  C   UNL     1      31.400  11.854  48.026  0.00  0.00    +0.000 A 
ATOM     17  C   UNL     1      32.077  10.876  47.317  0.00  0.00    +0.000 A 
ATOM     18  N   UNL     1      32.035   9.557  47.620  0.00  0.00    +0.000 NA
ENDBRANCH  12  13
ENDBRANCH  10  12
ENDBRANCH   5   8
ENDBRANCH   1   2
BRANCH   1  19
ATOM     19  C   UNL     1      23.020   5.463  50.318  0.00  0.00    +0.000 C 
BRANCH  19  21
ATOM     20  C   UNL     1      23.461   5.030  52.921  0.00  0.00    +0.000 C 
ATOM     21  C   UNL     1      23.220   5.236  51.760  0.00  0.00    +0.000 C 
ENDBRANCH  19  21
ENDBRANCH   1  19
BRANCH   1  22
ATOM     22  C   UNL     1      23.482   3.311  49.165  0.00  0.00    +0.000 C 
BRANCH  22  23
ATOM     23  C   UNL     1      23.511   2.335  50.326  0.00  0.00    +0.000 A 
ATOM     24  C   UNL     1      24.669   2.037  51.052  0.00  0.00    +0.000 A 
ATOM     25  C   UNL     1      24.612   1.221  52.186  0.00  0.00    +0.000 A 
ATOM     26  C   UNL     1      23.431   0.628  52.598  0.00  0.00    +0.000 A 
ATOM     27  N   UNL     1      23.436  -0.169  53.674  0.00  0.00    +0.000 NA
ATOM     28  C   UNL     1      22.286  -0.784  54.004  0.00  0.00    +0.000 A 
ATOM     29  C   UNL     1      22.338  -1.725  55.165  0.00  0.00    +0.000 C 
ATOM     30  N   UNL     1      21.123  -0.649  53.346  0.00  0.00    +0.000 NA
ATOM     31  C   UNL     1      21.165   0.177  52.294  0.00  0.00    +0.000 A 
ATOM     32  C   UNL     1      22.282   0.866  51.847  0.00  0.00    +0.000 A 
ATOM     33  C   UNL     1      22.314   1.730  50.729  0.00  0.00    +0.000 A 
BRANCH  31  34
ATOM     34  O   UNL     1      19.978   0.257  51.631  0.00  0.00    +0.000 OA
ATOM     35  H   UNL     1      19.719   1.063  51.231  0.00  0.00    +0.000 HD
ENDBRANCH  31  34
ENDBRANCH  22  23
ENDBRANCH   1  22
TORSDOF 9
ENDMDL
MODEL 8
REMARK VINA RESULT:    -8.225      2.233      8.266
REMARK INTER + INTRA:         -13.980
REMARK INTER:                 -12.609
REMARK INTRA:                  -1.371
REMARK UNBOUND:                -1.668
REMARK  Name = 
REMARK  10 active torsions:
REMARK  status: ('A' for Active; 'I' for Inactive)
REMARK    1  A    between atoms: C_2  and  C_3
REMARK    2  A    between atoms: C_3  and  N_4
REMARK    3  A    between atoms: N_4  and  C_5
REMARK    4  A    between atoms: N_4  and  C_18
REMARK    5  A    between atoms: C_5  and  C_6
REMARK    6  A    between atoms: C_11  and  C_12
REMARK    7  A    between atoms: C_14  and  O_15
REMARK    8  A    between atoms: C_21  and  C_22
REMARK    9  A    between atoms: N_24  and  C_25
REMARK   10  A    between atoms: C_25  and  C_26
REMARK                            x       y       z     vdW  Elec       q    Type
REMARK                         _______ _______ _______ _____ _____    ______ ____
ROOT
ATOM      1  N   UNL     1      22.799   5.790  50.267  0.00  0.00    +0.000 N 
ENDROOT
BRANCH   1   2
ATOM      2  C   UNL     1      23.045   4.589  50.926  0.00  0.00    +0.000 A 
ATOM      3  C   UNL     1      23.435   4.504  52.272  0.00  0.00    +0.000 A 
ATOM      4  C   UNL     1      23.773   3.280  52.888  0.00  0.00    +0.000 A 
ATOM      5  C   UNL     1      23.720   2.077  52.178  0.00  0.00    +0.000 A 
ATOM      6  C   UNL     1      23.246   2.124  50.872  0.00  0.00    +0.000 A 
ATOM      7  C   UNL     1      22.924   3.352  50.268  0.00  0.00    +0.000 A 
BRANCH   5   8
ATOM      8  C   UNL     1      24.170   0.803  52.835  0.00  0.00    +0.000 C 
ATOM      9  O   UNL     1      23.477   0.268  53.698  0.00  0.00    +0.000 OA
ATOM     10  N   UNL     1      25.390   0.292  52.440  0.00  0.00    +0.000 N 
ATOM     11  H   UNL     1      25.871   0.742  51.708  0.00  0.00    +0.000 HD
BRANCH  10  12
ATOM     12  C   UNL     1      26.001  -0.873  53.051  0.00  0.00    +0.000 C 
BRANCH  12  13
ATOM     13  C   UNL     1      27.484  -0.682  53.288  0.00  0.00    +0.000 A 
ATOM     14  C   UNL     1      28.358  -1.758  53.146  0.00  0.00    +0.000 A 
ATOM     15  C   UNL     1      29.714  -1.563  53.394  0.00  0.00    +0.000 A 
ATOM     16  C   UNL     1      30.164  -0.306  53.778  0.00  0.00    +0.000 A 
ATOM     17  C   UNL     1      29.232   0.713  53.893  0.00  0.00    +0.000 A 
ATOM     18  N   UNL     1      27.908   0.555  53.664  0.00  0.00    +0.000 NA
ENDBRANCH  12  13
ENDBRANCH  10  12
ENDBRANCH   5   8
ENDBRANCH   1   2
BRANCH   1  19
ATOM     19  C   UNL     1      22.447   7.043  50.953  0.00  0.00    +0.000 C 
BRANCH  19  21
ATOM     20  C   UNL     1      20.352   8.297  49.861  0.00  0.00    +0.000 C 
ATOM     21  C   UNL     1      21.286   7.698  50.325  0.00  0.00    +0.000 C 
ENDBRANCH  19  21
ENDBRANCH   1  19
BRANCH   1  22
ATOM     22  C   UNL     1      22.886   5.888  48.797  0.00  0.00    +0.000 C 
BRANCH  22  23
ATOM     23  C   UNL     1      24.199   6.458  48.295  0.00  0.00    +0.000 A 
ATOM     24  C   UNL     1      24.283   7.570  47.452  0.00  0.00    +0.000 A 
ATOM     25  C   UNL     1      25.524   8.123  47.116  0.00  0.00    +0.000 A 
ATOM     26  C   UNL     1      26.712   7.560  47.550  0.00  0.00    +0.000 A 
ATOM     27  N   UNL     1      27.874   8.110  47.177  0.00  0.00    +0.000 NA
ATOM     28  C   UNL     1      29.009   7.496  47.557  0.00  0.00    +0.000 A 
ATOM     29  C   UNL     1      30.290   8.090  47.065  0.00  0.00    +0.000 C 
ATOM     30  N   UNL     1      29.070   6.378  48.299  0.00  0.00    +0.000 NA
ATOM     31  C   UNL     1      27.883   5.883  48.667  0.00  0.00    +0.000 A 
ATOM     32  C   UNL     1      26.645   6.414  48.339  0.00  0.00    +0.000 A 
ATOM     33  C   UNL     1      25.396   5.875  48.728  0.00  0.00    +0.000 A 
BRANCH  31  34
ATOM     34  O   UNL     1      27.985   4.730  49.384  0.00  0.00    +0.000 OA
ATOM     35  H   UNL     1      27.602   4.673  50.237  0.00  0.00    +0.000 HD
ENDBRANCH  31  34
ENDBRANCH  22  23
ENDBRANCH   1  22
TORSDOF 9
ENDMDL
MODEL 9
REMARK VINA RESULT:    -8.085      2.000      2.943
REMARK INTER + INTRA:         -13.770
REMARK INTER:                 -12.426
REMARK INTRA:                  -1.344
REMARK UNBOUND:                -1.668
REMARK  Name = 
REMARK  10 active torsions:
REMARK  status: ('A' for Active; 'I' for Inactive)
REMARK    1  A    between atoms: C_2  and  C_3
REMARK    2  A    between atoms: C_3  and  N_4
REMARK    3  A    between atoms: N_4  and  C_5
REMARK    4  A    between atoms: N_4  and  C_18
REMARK    5  A    between atoms: C_5  and  C_6
REMARK    6  A    between atoms: C_11  and  C_12
REMARK    7  A    between atoms: C_14  and  O_15
REMARK    8  A    between atoms: C_21  and  C_22
REMARK    9  A    between atoms: N_24  and  C_25
REMARK   10  A    between atoms: C_25  and  C_26
REMARK                            x       y       z     vdW  Elec       q    Type
REMARK                         _______ _______ _______ _____ _____    ______ ____
ROOT
ATOM      1  N   UNL     1      23.994   4.445  49.639  0.00  0.00    +0.000 N 
ENDROOT
BRANCH   1   2
ATOM      2  C   UNL     1      25.191   4.984  49.176  0.00  0.00    +0.000 A 
ATOM      3  C   UNL     1      26.403   4.276  49.144  0.00  0.00    +0.000 A 
ATOM      4  C   UNL     1      27.622   4.876  48.760  0.00  0.00    +0.000 A 
ATOM      5  C   UNL     1      27.675   6.219  48.377  0.00  0.00    +0.000 A 
ATOM      6  C   UNL     1      26.473   6.914  48.310  0.00  0.00    +0.000 A 
ATOM      7  C   UNL     1      25.269   6.307  48.705  0.00  0.00    +0.000 A 
BRANCH   5   8
ATOM      8  C   UNL     1      29.000   6.852  48.060  0.00  0.00    +0.000 C 
ATOM      9  O   UNL     1      29.296   7.130  46.900  0.00  0.00    +0.000 OA
ATOM     10  N   UNL     1      29.856   7.077  49.119  0.00  0.00    +0.000 N 
ATOM     11  H   UNL     1      29.537   6.877  50.029  0.00  0.00    +0.000 HD
BRANCH  10  12
ATOM     12  C   UNL     1      31.203   7.589  48.959  0.00  0.00    +0.000 C 
BRANCH  12  13
ATOM     13  C   UNL     1      31.218   9.065  48.626  0.00  0.00    +0.000 A 
ATOM     14  C   UNL     1      31.931   9.527  47.523  0.00  0.00    +0.000 A 
ATOM     15  C   UNL     1      31.949  10.893  47.253  0.00  0.00    +0.000 A 
ATOM     16  C   UNL     1      31.259  11.762  48.088  0.00  0.00    +0.000 A 
ATOM     17  C   UNL     1      30.570  11.225  49.162  0.00  0.00    +0.000 A 
ATOM     18  N   UNL     1      30.537   9.904  49.455  0.00  0.00    +0.000 NA
ENDBRANCH  12  13
ENDBRANCH  10  12
ENDBRANCH   5   8
ENDBRANCH   1   2
BRANCH   1  19
ATOM     19  C   UNL     1      23.002   5.203  50.417  0.00  0.00    +0.000 C 
BRANCH  19  21
ATOM     20  C   UNL     1      23.477   5.161  53.049  0.00  0.00    +0.000 C 
ATOM     21  C   UNL     1      23.282   5.139  51.862  0.00  0.00    +0.000 C 
ENDBRANCH  19  21
ENDBRANCH   1  19
BRANCH   1  22
ATOM     22  C   UNL     1      23.630   3.042  49.362  0.00  0.00    +0.000 C 
BRANCH  22  23
ATOM     23  C   UNL     1      23.554   2.170  50.601  0.00  0.00    +0.000 A 
ATOM     24  C   UNL     1      22.376   1.562  51.044  0.00  0.00    +0.000 A 
ATOM     25  C   UNL     1      22.390   0.673  52.125  0.00  0.00    +0.000 A 
ATOM     26  C   UNL     1      23.550   0.409  52.834  0.00  0.00    +0.000 A 
ATOM     27  N   UNL     1      23.504  -0.427  53.879  0.00  0.00    +0.000 NA
ATOM     28  C   UNL     1      24.633  -0.605  54.588  0.00  0.00    +0.000 A 
ATOM     29  C   UNL     1      24.536  -1.486  55.793  0.00  0.00    +0.000 C 
ATOM     30  N   UNL     1      25.813  -0.021  54.320  0.00  0.00    +0.000 NA
ATOM     31  C   UNL     1      25.811   0.784  53.252  0.00  0.00    +0.000 A 
ATOM     32  C   UNL     1      24.719   1.057  52.443  0.00  0.00    +0.000 A 
ATOM     33  C   UNL     1      24.729   1.918  51.320  0.00  0.00    +0.000 A 
BRANCH  31  34
ATOM     34  O   UNL     1      27.013   1.387  53.036  0.00  0.00    +0.000 OA
ATOM     35  H   UNL     1      27.566   1.095  52.339  0.00  0.00    +0.000 HD
ENDBRANCH  31  34
ENDBRANCH  22  23
ENDBRANCH   1  22
TORSDOF 9
ENDMDL
