MODEL 1
REMARK VINA RESULT:    -9.196      0.000      0.000
REMARK INTER + INTRA:         -14.768
REMARK INTER:                 -13.228
REMARK INTRA:                  -1.540
REMARK UNBOUND:                -1.540
REMARK  Name = 
REMARK  9 active torsions:
REMARK  status: ('A' for Active; 'I' for Inactive)
REMARK    1  A    between atoms: C_2  and  C_3
REMARK    2  A    between atoms: C_3  and  N_4
REMARK    3  A    between atoms: N_4  and  C_5
REMARK    4  A    between atoms: N_4  and  C_18
REMARK    5  A    between atoms: C_5  and  C_6
REMARK    6  A    between atoms: C_11  and  C_12
REMARK    7  A    between atoms: C_14  and  O_15
REMARK    8  A    between atoms: C_21  and  C_22
REMARK    9  A    between atoms: N_24  and  C_25
REMARK                            x       y       z     vdW  Elec       q    Type
REMARK                         _______ _______ _______ _____ _____    ______ ____
ROOT
ATOM      1  N   UNL     1      23.703   3.576  51.566  0.00  0.00    +0.000 N 
ENDROOT
BRANCH   1   2
ATOM      2  C   UNL     1      24.453   4.468  50.801  0.00  0.00    +0.000 A 
ATOM      3  C   UNL     1      25.405   4.076  49.844  0.00  0.00    +0.000 A 
ATOM      4  C   UNL     1      26.209   5.007  49.147  0.00  0.00    +0.000 A 
ATOM      5  C   UNL     1      26.057   6.384  49.343  0.00  0.00    +0.000 A 
ATOM      6  C   UNL     1      25.071   6.796  50.233  0.00  0.00    +0.000 A 
ATOM      7  C   UNL     1      24.336   5.858  50.972  0.00  0.00    +0.000 A 
BRANCH   5   8
ATOM      8  C   UNL     1      27.016   7.337  48.684  0.00  0.00    +0.000 C 
ATOM      9  O   UNL     1      26.934   7.489  47.469  0.00  0.00    +0.000 OA
ATOM     10  N   UNL     1      27.955   7.938  49.512  0.00  0.00    +0.000 N 
ATOM     11  H   UNL     1      27.792   7.859  50.480  0.00  0.00    +0.000 HD
BRANCH  10  12
ATOM     12  C   UNL     1      29.117   8.646  49.134  0.00  0.00    +0.000 A 
ATOM     13  C   UNL     1      29.208  10.036  49.115  0.00  0.00    +0.000 A 
ATOM     14  C   UNL     1      30.342  10.661  48.589  0.00  0.00    +0.000 A 
ATOM     15  C   UNL     1      31.403   9.902  48.101  0.00  0.00    +0.000 A 
ATOM     16  C   UNL     1      31.348   8.513  48.171  0.00  0.00    +0.000 A 
ATOM     17  C   UNL     1      30.211   7.888  48.688  0.00  0.00    +0.000 A 
ENDBRANCH  10  12
ENDBRANCH   5   8
ENDBRANCH   1   2
BRANCH   1  18
ATOM     18  C   UNL     1      22.277   3.308  51.307  0.00  0.00    +0.000 C 
BRANCH  18  20
ATOM     19  C   UNL     1      21.953   1.294  49.572  0.00  0.00    +0.000 C 
ATOM     20  C   UNL     1      22.103   2.168  50.383  0.00  0.00    +0.000 C 
ENDBRANCH  18  20
ENDBRANCH   1  18
BRANCH   1  21
ATOM     21  C   UNL     1      24.177   3.111  52.884  0.00  0.00    +0.000 C 
BRANCH  21  22
ATOM     22  C   UNL     1      25.321   2.116  52.847  0.00  0.00    +0.000 A 
ATOM     23  C   UNL     1      25.056   0.826  52.361  0.00  0.00    +0.000 A 
ATOM     24  C   UNL     1      26.016  -0.187  52.431  0.00  0.00    +0.000 A 
ATOM     25  C   UNL     1      27.270   0.037  52.979  0.00  0.00    +0.000 A 
ATOM     26  N   UNL     1      28.131  -0.987  53.082  0.00  0.00    +0.000 NA
ATOM     27  C   UNL     1      29.336  -0.743  53.630  0.00  0.00    +0.000 A 
ATOM     28  C   UNL     1      30.247  -1.918  53.827  0.00  0.00    +0.000 C 
ATOM     29  N   UNL     1      29.751   0.459  54.048  0.00  0.00    +0.000 NA
ATOM     30  C   UNL     1      28.858   1.449  53.925  0.00  0.00    +0.000 A 
ATOM     31  C   UNL     1      27.568   1.325  53.424  0.00  0.00    +0.000 A 
ATOM     32  C   UNL     1      26.598   2.366  53.367  0.00  0.00    +0.000 A 
BRANCH  30  33
ATOM     33  O   UNL     1      29.338   2.651  54.342  0.00  0.00    +0.000 OA
ATOM     34  H   UNL     1      29.740   3.233  53.728  0.00  0.00    +0.000 HD
ENDBRANCH  30  33
ENDBRANCH  21  22
ENDBRANCH   1  21
TORSDOF 8
ENDMDL
MODEL 2
REMARK VINA RESULT:    -9.031      3.639      8.302
REMARK INTER + INTRA:         -14.531
REMARK INTER:                 -12.854
REMARK INTRA:                  -1.676
REMARK UNBOUND:                -1.540
REMARK  Name = 
REMARK  9 active torsions:
REMARK  status: ('A' for Active; 'I' for Inactive)
REMARK    1  A    between atoms: C_2  and  C_3
REMARK    2  A    between atoms: C_3  and  N_4
REMARK    3  A    between atoms: N_4  and  C_5
REMARK    4  A    between atoms: N_4  and  C_18
REMARK    5  A    between atoms: C_5  and  C_6
REMARK    6  A    between atoms: C_11  and  C_12
REMARK    7  A    between atoms: C_14  and  O_15
REMARK    8  A    between atoms: C_21  and  C_22
REMARK    9  A    between atoms: N_24  and  C_25
REMARK                            x       y       z     vdW  Elec       q    Type
REMARK                         _______ _______ _______ _____ _____    ______ ____
ROOT
ATOM      1  N   UNL     1      19.195   0.998  52.100  0.00  0.00    +0.000 N 
ENDROOT
BRANCH   1   2
ATOM      2  C   UNL     1      20.386   0.495  52.623  0.00  0.00    +0.000 A 
ATOM      3  C   UNL     1      20.673   0.421  53.997  0.00  0.00    +0.000 A 
ATOM      4  C   UNL     1      21.925  -0.015  54.489  0.00  0.00    +0.000 A 
ATOM      5  C   UNL     1      22.932  -0.447  53.620  0.00  0.00    +0.000 A 
ATOM      6  C   UNL     1      22.644  -0.449  52.260  0.00  0.00    +0.000 A 
ATOM      7  C   UNL     1      21.426   0.059  51.785  0.00  0.00    +0.000 A 
BRANCH   5   8
ATOM      8  C   UNL     1      24.293  -0.779  54.171  0.00  0.00    +0.000 C 
ATOM      9  O   UNL     1      24.366  -1.167  55.333  0.00  0.00    +0.000 OA
ATOM     10  N   UNL     1      25.369  -0.573  53.319  0.00  0.00    +0.000 N 
ATOM     11  H   UNL     1      25.149  -0.429  52.370  0.00  0.00    +0.000 HD
BRANCH  10  12
ATOM     12  C   UNL     1      26.742  -0.542  53.649  0.00  0.00    +0.000 A 
ATOM     13  C   UNL     1      27.317   0.402  54.496  0.00  0.00    +0.000 A 
ATOM     14  C   UNL     1      28.705   0.455  54.656  0.00  0.00    +0.000 A 
ATOM     15  C   UNL     1      29.526  -0.452  53.989  0.00  0.00    +0.000 A 
ATOM     16  C   UNL     1      28.958  -1.438  53.188  0.00  0.00    +0.000 A 
ATOM     17  C   UNL     1      27.572  -1.485  53.021  0.00  0.00    +0.000 A 
ENDBRANCH  10  12
ENDBRANCH   5   8
ENDBRANCH   1   2
BRANCH   1  18
ATOM     18  C   UNL     1      18.158   0.134  51.509  0.00  0.00    +0.000 C 
BRANCH  18  20
ATOM     19  C   UNL     1      17.518  -1.827  53.217  0.00  0.00    +0.000 C 
ATOM     20  C   UNL     1      17.799  -0.974  52.417  0.00  0.00    +0.000 C 
ENDBRANCH  18  20
ENDBRANCH   1  18
BRANCH   1  21
ATOM     21  C   UNL     1      19.042   2.431  51.785  0.00  0.00    +0.000 C 
BRANCH  21  22
ATOM     22  C   UNL     1      20.245   3.081  51.127  0.00  0.00    +0.000 A 
ATOM     23  C   UNL     1      20.439   2.868  49.754  0.00  0.00    +0.000 A 
ATOM     24  C   UNL     1      21.598   3.309  49.108  0.00  0.00    +0.000 A 
ATOM     25  C   UNL     1      22.601   3.977  49.792  0.00  0.00    +0.000 A 
ATOM     26  N   UNL     1      23.722   4.321  49.139  0.00  0.00    +0.000 NA
ATOM     27  C   UNL     1      24.685   4.957  49.831  0.00  0.00    +0.000 A 
ATOM     28  C   UNL     1      25.968   5.245  49.111  0.00  0.00    +0.000 C 
ATOM     29  N   UNL     1      24.589   5.303  51.121  0.00  0.00    +0.000 NA
ATOM     30  C   UNL     1      23.454   4.941  51.730  0.00  0.00    +0.000 A 
ATOM     31  C   UNL     1      22.405   4.241  51.148  0.00  0.00    +0.000 A 
ATOM     32  C   UNL     1      21.234   3.790  51.822  0.00  0.00    +0.000 A 
BRANCH  30  33
ATOM     33  O   UNL     1      23.399   5.337  53.030  0.00  0.00    +0.000 OA
ATOM     34  H   UNL     1      23.998   5.983  53.348  0.00  0.00    +0.000 HD
ENDBRANCH  30  33
ENDBRANCH  21  22
ENDBRANCH   1  21
TORSDOF 8
ENDMDL
MODEL 3
REMARK VINA RESULT:    -8.933      3.432      6.143
REMARK INTER + INTRA:         -14.390
REMARK INTER:                 -13.560
REMARK INTRA:                  -0.830
REMARK UNBOUND:                -1.540
REMARK  Name = 
REMARK  9 active torsions:
REMARK  status: ('A' for Active; 'I' for Inactive)
REMARK    1  A    between atoms: C_2  and  C_3
REMARK    2  A    between atoms: C_3  and  N_4
REMARK    3  A    between atoms: N_4  and  C_5
REMARK    4  A    between atoms: N_4  and  C_18
REMARK    5  A    between atoms: C_5  and  C_6
REMARK    6  A    between atoms: C_11  and  C_12
REMARK    7  A    between atoms: C_14  and  O_15
REMARK    8  A    between atoms: C_21  and  C_22
REMARK    9  A    between atoms: N_24  and  C_25
REMARK                            x       y       z     vdW  Elec       q    Type
REMARK                         _______ _______ _______ _____ _____    ______ ____
ROOT
ATOM      1  N   UNL     1      25.734   0.583  53.799  0.00  0.00    +0.000 N 
ENDROOT
BRANCH   1   2
ATOM      2  C   UNL     1      25.672   1.494  52.746  0.00  0.00    +0.000 A 
ATOM      3  C   UNL     1      26.485   1.428  51.600  0.00  0.00    +0.000 A 
ATOM      4  C   UNL     1      26.455   2.418  50.591  0.00  0.00    +0.000 A 
ATOM      5  C   UNL     1      25.567   3.496  50.661  0.00  0.00    +0.000 A 
ATOM      6  C   UNL     1      24.705   3.542  51.750  0.00  0.00    +0.000 A 
ATOM      7  C   UNL     1      24.800   2.595  52.780  0.00  0.00    +0.000 A 
BRANCH   5   8
ATOM      8  C   UNL     1      25.655   4.596  49.638  0.00  0.00    +0.000 C 
ATOM      9  O   UNL     1      24.747   4.694  48.818  0.00  0.00    +0.000 OA
ATOM     10  N   UNL     1      26.793   5.389  49.681  0.00  0.00    +0.000 N 
ATOM     11  H   UNL     1      27.346   5.309  50.492  0.00  0.00    +0.000 HD
BRANCH  10  12
ATOM     12  C   UNL     1      27.256   6.295  48.702  0.00  0.00    +0.000 A 
ATOM     13  C   UNL     1      28.507   6.211  48.094  0.00  0.00    +0.000 A 
ATOM     14  C   UNL     1      28.948   7.230  47.244  0.00  0.00    +0.000 A 
ATOM     15  C   UNL     1      28.132   8.326  46.975  0.00  0.00    +0.000 A 
ATOM     16  C   UNL     1      26.857   8.390  47.528  0.00  0.00    +0.000 A 
ATOM     17  C   UNL     1      26.420   7.377  48.386  0.00  0.00    +0.000 A 
ENDBRANCH  10  12
ENDBRANCH   5   8
ENDBRANCH   1   2
BRANCH   1  18
ATOM     18  C   UNL     1      26.762   0.653  54.853  0.00  0.00    +0.000 C 
BRANCH  18  20
ATOM     19  C   UNL     1      29.044  -0.461  54.005  0.00  0.00    +0.000 C 
ATOM     20  C   UNL     1      28.042   0.075  54.397  0.00  0.00    +0.000 C 
ENDBRANCH  18  20
ENDBRANCH   1  18
BRANCH   1  21
ATOM     21  C   UNL     1      25.009  -0.701  53.745  0.00  0.00    +0.000 C 
BRANCH  21  22
ATOM     22  C   UNL     1      23.498  -0.589  53.680  0.00  0.00    +0.000 A 
ATOM     23  C   UNL     1      22.755  -1.081  54.763  0.00  0.00    +0.000 A 
ATOM     24  C   UNL     1      21.359  -1.147  54.716  0.00  0.00    +0.000 A 
ATOM     25  C   UNL     1      20.650  -0.730  53.600  0.00  0.00    +0.000 A 
ATOM     26  N   UNL     1      19.316  -0.877  53.580  0.00  0.00    +0.000 NA
ATOM     27  C   UNL     1      18.655  -0.476  52.478  0.00  0.00    +0.000 A 
ATOM     28  C   UNL     1      17.180  -0.738  52.434  0.00  0.00    +0.000 C 
ATOM     29  N   UNL     1      19.231   0.094  51.413  0.00  0.00    +0.000 NA
ATOM     30  C   UNL     1      20.562   0.221  51.478  0.00  0.00    +0.000 A 
ATOM     31  C   UNL     1      21.369  -0.195  52.531  0.00  0.00    +0.000 A 
ATOM     32  C   UNL     1      22.791  -0.128  52.561  0.00  0.00    +0.000 A 
BRANCH  30  33
ATOM     33  O   UNL     1      21.093   0.825  50.383  0.00  0.00    +0.000 OA
ATOM     34  H   UNL     1      21.822   1.406  50.476  0.00  0.00    +0.000 HD
ENDBRANCH  30  33
ENDBRANCH  21  22
ENDBRANCH   1  21
TORSDOF 8
ENDMDL
MODEL 4
REMARK VINA RESULT:    -8.659      3.497      8.605
REMARK INTER + INTRA:         -13.996
REMARK INTER:                 -12.715
REMARK INTRA:                  -1.281
REMARK UNBOUND:                -1.540
REMARK  Name = 
REMARK  9 active torsions:
REMARK  status: ('A' for Active; 'I' for Inactive)
REMARK    1  A    between atoms: C_2  and  C_3
REMARK    2  A    between atoms: C_3  and  N_4
REMARK    3  A    between atoms: N_4  and  C_5
REMARK    4  A    between atoms: N_4  and  C_18
REMARK    5  A    between atoms: C_5  and  C_6
REMARK    6  A    between atoms: C_11  and  C_12
REMARK    7  A    between atoms: C_14  and  O_15
REMARK    8  A    between atoms: C_21  and  C_22
REMARK    9  A    between atoms: N_24  and  C_25
REMARK                            x       y       z     vdW  Elec       q    Type
REMARK                         _______ _______ _______ _____ _____    ______ ____
ROOT
ATOM      1  N   UNL     1      20.517   2.429  51.341  0.00  0.00    +0.000 N 
ENDROOT
BRANCH   1   2
ATOM      2  C   UNL     1      21.603   1.814  51.962  0.00  0.00    +0.000 A 
ATOM      3  C   UNL     1      22.845   2.437  52.174  0.00  0.00    +0.000 A 
ATOM      4  C   UNL     1      23.952   1.755  52.730  0.00  0.00    +0.000 A 
ATOM      5  C   UNL     1      23.846   0.425  53.148  0.00  0.00    +0.000 A 
ATOM      6  C   UNL     1      22.606  -0.189  53.012  0.00  0.00    +0.000 A 
ATOM      7  C   UNL     1      21.541   0.477  52.389  0.00  0.00    +0.000 A 
BRANCH   5   8
ATOM      8  C   UNL     1      25.076  -0.306  53.612  0.00  0.00    +0.000 C 
ATOM      9  O   UNL     1      25.111  -0.696  54.775  0.00  0.00    +0.000 OA
ATOM     10  N   UNL     1      26.100  -0.440  52.685  0.00  0.00    +0.000 N 
ATOM     11  H   UNL     1      25.867  -0.237  51.750  0.00  0.00    +0.000 HD
BRANCH  10  12
ATOM     12  C   UNL     1      27.437  -0.830  52.920  0.00  0.00    +0.000 A 
ATOM     13  C   UNL     1      27.884  -2.148  52.863  0.00  0.00    +0.000 A 
ATOM     14  C   UNL     1      29.188  -2.468  53.253  0.00  0.00    +0.000 A 
ATOM     15  C   UNL     1      30.062  -1.470  53.678  0.00  0.00    +0.000 A 
ATOM     16  C   UNL     1      29.645  -0.143  53.681  0.00  0.00    +0.000 A 
ATOM     17  C   UNL     1      28.339   0.176  53.301  0.00  0.00    +0.000 A 
ENDBRANCH  10  12
ENDBRANCH   5   8
ENDBRANCH   1   2
BRANCH   1  18
ATOM     18  C   UNL     1      19.985   1.983  50.041  0.00  0.00    +0.000 C 
BRANCH  18  20
ATOM     19  C   UNL     1      21.956   1.609  48.267  0.00  0.00    +0.000 C 
ATOM     20  C   UNL     1      21.065   1.816  49.046  0.00  0.00    +0.000 C 
ENDBRANCH  18  20
ENDBRANCH   1  18
BRANCH   1  21
ATOM     21  C   UNL     1      20.054   3.767  51.758  0.00  0.00    +0.000 C 
BRANCH  21  22
ATOM     22  C   UNL     1      20.751   4.933  51.083  0.00  0.00    +0.000 A 
ATOM     23  C   UNL     1      20.216   5.411  49.878  0.00  0.00    +0.000 A 
ATOM     24  C   UNL     1      20.881   6.382  49.123  0.00  0.00    +0.000 A 
ATOM     25  C   UNL     1      22.093   6.916  49.532  0.00  0.00    +0.000 A 
ATOM     26  N   UNL     1      22.722   7.796  48.738  0.00  0.00    +0.000 NA
ATOM     27  C   UNL     1      23.904   8.287  49.154  0.00  0.00    +0.000 A 
ATOM     28  C   UNL     1      24.637   9.193  48.211  0.00  0.00    +0.000 C 
ATOM     29  N   UNL     1      24.481   7.986  50.324  0.00  0.00    +0.000 NA
ATOM     30  C   UNL     1      23.817   7.105  51.082  0.00  0.00    +0.000 A 
ATOM     31  C   UNL     1      22.618   6.487  50.751  0.00  0.00    +0.000 A 
ATOM     32  C   UNL     1      21.956   5.493  51.528  0.00  0.00    +0.000 A 
BRANCH  30  33
ATOM     33  O   UNL     1      24.434   6.853  52.267  0.00  0.00    +0.000 OA
ATOM     34  H   UNL     1      23.929   6.596  53.013  0.00  0.00    +0.000 HD
ENDBRANCH  30  33
ENDBRANCH  21  22
ENDBRANCH   1  21
TORSDOF 8
ENDMDL
MODEL 5
REMARK VINA RESULT:    -8.353      5.998      9.761
REMARK INTER + INTRA:         -13.556
REMARK INTER:                 -12.230
REMARK INTRA:                  -1.326
REMARK UNBOUND:                -1.540
REMARK  Name = 
REMARK  9 active torsions:
REMARK  status: ('A' for Active; 'I' for Inactive)
REMARK    1  A    between atoms: C_2  and  C_3
REMARK    2  A    between atoms: C_3  and  N_4
REMARK    3  A    between atoms: N_4  and  C_5
REMARK    4  A    between atoms: N_4  and  C_18
REMARK    5  A    between atoms: C_5  and  C_6
REMARK    6  A    between atoms: C_11  and  C_12
REMARK    7  A    between atoms: C_14  and  O_15
REMARK    8  A    between atoms: C_21  and  C_22
REMARK    9  A    between atoms: N_24  and  C_25
REMARK                            x       y       z     vdW  Elec       q    Type
REMARK                         _______ _______ _______ _____ _____    ______ ____
ROOT
ATOM      1  N   UNL     1      20.351   2.294  50.907  0.00  0.00    +0.000 N 
ENDROOT
BRANCH   1   2
ATOM      2  C   UNL     1      21.390   1.713  51.634  0.00  0.00    +0.000 A 
ATOM      3  C   UNL     1      22.435   2.441  52.230  0.00  0.00    +0.000 A 
ATOM      4  C   UNL     1      23.518   1.814  52.887  0.00  0.00    +0.000 A 
ATOM      5  C   UNL     1      23.575   0.422  53.021  0.00  0.00    +0.000 A 
ATOM      6  C   UNL     1      22.516  -0.312  52.500  0.00  0.00    +0.000 A 
ATOM      7  C   UNL     1      21.489   0.320  51.785  0.00  0.00    +0.000 A 
BRANCH   5   8
ATOM      8  C   UNL     1      24.805  -0.215  53.609  0.00  0.00    +0.000 C 
ATOM      9  O   UNL     1      24.721  -0.699  54.734  0.00  0.00    +0.000 OA
ATOM     10  N   UNL     1      25.956  -0.162  52.836  0.00  0.00    +0.000 N 
ATOM     11  H   UNL     1      25.834   0.096  51.894  0.00  0.00    +0.000 HD
BRANCH  10  12
ATOM     12  C   UNL     1      27.283  -0.431  53.238  0.00  0.00    +0.000 A 
ATOM     13  C   UNL     1      28.128   0.515  53.813  0.00  0.00    +0.000 A 
ATOM     14  C   UNL     1      29.473   0.211  54.047  0.00  0.00    +0.000 A 
ATOM     15  C   UNL     1      29.976  -1.049  53.732  0.00  0.00    +0.000 A 
ATOM     16  C   UNL     1      29.126  -2.022  53.214  0.00  0.00    +0.000 A 
ATOM     17  C   UNL     1      27.785  -1.715  52.971  0.00  0.00    +0.000 A 
ENDBRANCH  10  12
ENDBRANCH   5   8
ENDBRANCH   1   2
BRANCH   1  18
ATOM     18  C   UNL     1      20.582   3.120  49.709  0.00  0.00    +0.000 C 
BRANCH  18  20
ATOM     19  C   UNL     1      22.210   1.882  47.980  0.00  0.00    +0.000 C 
ATOM     20  C   UNL     1      21.445   2.424  48.733  0.00  0.00    +0.000 C 
ENDBRANCH  18  20
ENDBRANCH   1  18
BRANCH   1  21
ATOM     21  C   UNL     1      18.994   2.415  51.474  0.00  0.00    +0.000 C 
BRANCH  21  22
ATOM     22  C   UNL     1      18.116   1.189  51.321  0.00  0.00    +0.000 A 
ATOM     23  C   UNL     1      17.233   1.143  50.231  0.00  0.00    +0.000 A 
ATOM     24  C   UNL     1      16.291   0.119  50.101  0.00  0.00    +0.000 A 
ATOM     25  C   UNL     1      16.189  -0.896  51.040  0.00  0.00    +0.000 A 
ATOM     26  N   UNL     1      15.224  -1.818  50.903  0.00  0.00    +0.000 NA
ATOM     27  C   UNL     1      15.139  -2.784  51.837  0.00  0.00    +0.000 A 
ATOM     28  C   UNL     1      13.995  -3.747  51.722  0.00  0.00    +0.000 C 
ATOM     29  N   UNL     1      15.974  -2.911  52.875  0.00  0.00    +0.000 NA
ATOM     30  C   UNL     1      16.921  -1.970  52.970  0.00  0.00    +0.000 A 
ATOM     31  C   UNL     1      17.089  -0.894  52.106  0.00  0.00    +0.000 A 
ATOM     32  C   UNL     1      18.049   0.147  52.256  0.00  0.00    +0.000 A 
BRANCH  30  33
ATOM     33  O   UNL     1      17.755  -2.159  54.026  0.00  0.00    +0.000 OA
ATOM     34  H   UNL     1      17.885  -1.471  54.649  0.00  0.00    +0.000 HD
ENDBRANCH  30  33
ENDBRANCH  21  22
ENDBRANCH   1  21
TORSDOF 8
ENDMDL
MODEL 6
REMARK VINA RESULT:    -8.316      2.482      3.865
REMARK INTER + INTRA:         -13.502
REMARK INTER:                 -12.760
REMARK INTRA:                  -0.742
REMARK UNBOUND:                -1.540
REMARK  Name = 
REMARK  9 active torsions:
REMARK  status: ('A' for Active; 'I' for Inactive)
REMARK    1  A    between atoms: C_2  and  C_3
REMARK    2  A    between atoms: C_3  and  N_4
REMARK    3  A    between atoms: N_4  and  C_5
REMARK    4  A    between atoms: N_4  and  C_18
REMARK    5  A    between atoms: C_5  and  C_6
REMARK    6  A    between atoms: C_11  and  C_12
REMARK    7  A    between atoms: C_14  and  O_15
REMARK    8  A    between atoms: C_21  and  C_22
REMARK    9  A    between atoms: N_24  and  C_25
REMARK                            x       y       z     vdW  Elec       q    Type
REMARK                         _______ _______ _______ _____ _____    ______ ____
ROOT
ATOM      1  N   UNL     1      21.608   0.468  52.766  0.00  0.00    +0.000 N 
ENDROOT
BRANCH   1   2
ATOM      2  C   UNL     1      22.125   1.453  51.926  0.00  0.00    +0.000 A 
ATOM      3  C   UNL     1      22.325   1.283  50.545  0.00  0.00    +0.000 A 
ATOM      4  C   UNL     1      22.931   2.273  49.738  0.00  0.00    +0.000 A 
ATOM      5  C   UNL     1      23.320   3.505  50.274  0.00  0.00    +0.000 A 
ATOM      6  C   UNL     1      23.066   3.721  51.624  0.00  0.00    +0.000 A 
ATOM      7  C   UNL     1      22.534   2.700  52.425  0.00  0.00    +0.000 A 
BRANCH   5   8
ATOM      8  C   UNL     1      24.079   4.480  49.416  0.00  0.00    +0.000 C 
ATOM      9  O   UNL     1      23.524   4.917  48.412  0.00  0.00    +0.000 OA
ATOM     10  N   UNL     1      25.376   4.772  49.814  0.00  0.00    +0.000 N 
ATOM     11  H   UNL     1      25.623   4.489  50.724  0.00  0.00    +0.000 HD
BRANCH  10  12
ATOM     12  C   UNL     1      26.384   5.424  49.072  0.00  0.00    +0.000 A 
ATOM     13  C   UNL     1      27.584   4.824  48.696  0.00  0.00    +0.000 A 
ATOM     14  C   UNL     1      28.592   5.581  48.091  0.00  0.00    +0.000 A 
ATOM     15  C   UNL     1      28.399   6.936  47.834  0.00  0.00    +0.000 A 
ATOM     16  C   UNL     1      27.181   7.531  48.149  0.00  0.00    +0.000 A 
ATOM     17  C   UNL     1      26.178   6.778  48.763  0.00  0.00    +0.000 A 
ENDBRANCH  10  12
ENDBRANCH   5   8
ENDBRANCH   1   2
BRANCH   1  18
ATOM     18  C   UNL     1      20.406   0.677  53.593  0.00  0.00    +0.000 C 
BRANCH  18  20
ATOM     19  C   UNL     1      18.481  -1.068  52.942  0.00  0.00    +0.000 C 
ATOM     20  C   UNL     1      19.353  -0.308  53.271  0.00  0.00    +0.000 C 
ENDBRANCH  18  20
ENDBRANCH   1  18
BRANCH   1  21
ATOM     21  C   UNL     1      22.411  -0.709  53.152  0.00  0.00    +0.000 C 
BRANCH  21  22
ATOM     22  C   UNL     1      23.873  -0.429  53.439  0.00  0.00    +0.000 A 
ATOM     23  C   UNL     1      24.423  -0.946  54.622  0.00  0.00    +0.000 A 
ATOM     24  C   UNL     1      25.718  -0.610  55.028  0.00  0.00    +0.000 A 
ATOM     25  C   UNL     1      26.515   0.244  54.282  0.00  0.00    +0.000 A 
ATOM     26  N   UNL     1      27.725   0.586  54.749  0.00  0.00    +0.000 NA
ATOM     27  C   UNL     1      28.471   1.427  54.010  0.00  0.00    +0.000 A 
ATOM     28  C   UNL     1      29.777   1.875  54.595  0.00  0.00    +0.000 C 
ATOM     29  N   UNL     1      28.106   1.920  52.821  0.00  0.00    +0.000 NA
ATOM     30  C   UNL     1      26.892   1.551  52.394  0.00  0.00    +0.000 A 
ATOM     31  C   UNL     1      26.003   0.731  53.079  0.00  0.00    +0.000 A 
ATOM     32  C   UNL     1      24.683   0.405  52.655  0.00  0.00    +0.000 A 
BRANCH  30  33
ATOM     33  O   UNL     1      26.580   2.060  51.173  0.00  0.00    +0.000 OA
ATOM     34  H   UNL     1      27.109   2.738  50.799  0.00  0.00    +0.000 HD
ENDBRANCH  30  33
ENDBRANCH  21  22
ENDBRANCH   1  21
TORSDOF 8
ENDMDL
MODEL 7
REMARK VINA RESULT:    -8.223      6.507     10.177
REMARK INTER + INTRA:         -13.368
REMARK INTER:                 -12.198
REMARK INTRA:                  -1.170
REMARK UNBOUND:                -1.540
REMARK  Name = 
REMARK  9 active torsions:
REMARK  status: ('A' for Active; 'I' for Inactive)
REMARK    1  A    between atoms: C_2  and  C_3
REMARK    2  A    between atoms: C_3  and  N_4
REMARK    3  A    between atoms: N_4  and  C_5
REMARK    4  A    between atoms: N_4  and  C_18
REMARK    5  A    between atoms: C_5  and  C_6
REMARK    6  A    between atoms: C_11  and  C_12
REMARK    7  A    between atoms: C_14  and  O_15
REMARK    8  A    between atoms: C_21  and  C_22
REMARK    9  A    between atoms: N_24  and  C_25
REMARK                            x       y       z     vdW  Elec       q    Type
REMARK                         _______ _______ _______ _____ _____    ______ ____
ROOT
ATOM      1  N   UNL     1      18.957  -0.569  52.702  0.00  0.00    +0.000 N 
ENDROOT
BRANCH   1   2
ATOM      2  C   UNL     1      20.179   0.028  52.398  0.00  0.00    +0.000 A 
ATOM      3  C   UNL     1      21.159   0.344  53.355  0.00  0.00    +0.000 A 
ATOM      4  C   UNL     1      22.352   1.026  53.024  0.00  0.00    +0.000 A 
ATOM      5  C   UNL     1      22.640   1.379  51.701  0.00  0.00    +0.000 A 
ATOM      6  C   UNL     1      21.716   1.012  50.728  0.00  0.00    +0.000 A 
ATOM      7  C   UNL     1      20.504   0.404  51.084  0.00  0.00    +0.000 A 
BRANCH   5   8
ATOM      8  C   UNL     1      23.853   2.218  51.405  0.00  0.00    +0.000 C 
ATOM      9  O   UNL     1      24.550   2.577  52.349  0.00  0.00    +0.000 OA
ATOM     10  N   UNL     1      24.058   2.556  50.074  0.00  0.00    +0.000 N 
ATOM     11  H   UNL     1      23.526   2.058  49.413  0.00  0.00    +0.000 HD
BRANCH  10  12
ATOM     12  C   UNL     1      24.938   3.531  49.554  0.00  0.00    +0.000 A 
ATOM     13  C   UNL     1      26.319   3.369  49.474  0.00  0.00    +0.000 A 
ATOM     14  C   UNL     1      27.134   4.436  49.085  0.00  0.00    +0.000 A 
ATOM     15  C   UNL     1      26.572   5.665  48.747  0.00  0.00    +0.000 A 
ATOM     16  C   UNL     1      25.190   5.820  48.764  0.00  0.00    +0.000 A 
ATOM     17  C   UNL     1      24.376   4.757  49.163  0.00  0.00    +0.000 A 
ENDBRANCH  10  12
ENDBRANCH   5   8
ENDBRANCH   1   2
BRANCH   1  18
ATOM     18  C   UNL     1      18.775  -1.471  53.853  0.00  0.00    +0.000 C 
BRANCH  18  20
ATOM     19  C   UNL     1      17.140  -3.524  53.317  0.00  0.00    +0.000 C 
ATOM     20  C   UNL     1      17.851  -2.578  53.529  0.00  0.00    +0.000 C 
ENDBRANCH  18  20
ENDBRANCH   1  18
BRANCH   1  21
ATOM     21  C   UNL     1      17.864  -0.624  51.711  0.00  0.00    +0.000 C 
BRANCH  21  22
ATOM     22  C   UNL     1      16.744   0.375  51.928  0.00  0.00    +0.000 A 
ATOM     23  C   UNL     1      16.934   1.687  51.469  0.00  0.00    +0.000 A 
ATOM     24  C   UNL     1      16.014   2.699  51.759  0.00  0.00    +0.000 A 
ATOM     25  C   UNL     1      14.875   2.451  52.508  0.00  0.00    +0.000 A 
ATOM     26  N   UNL     1      14.057   3.470  52.814  0.00  0.00    +0.000 NA
ATOM     27  C   UNL     1      12.966   3.203  53.554  0.00  0.00    +0.000 A 
ATOM     28  C   UNL     1      12.119   4.368  53.969  0.00  0.00    +0.000 C 
ATOM     29  N   UNL     1      12.617   1.982  53.978  0.00  0.00    +0.000 NA
ATOM     30  C   UNL     1      13.461   0.996  53.649  0.00  0.00    +0.000 A 
ATOM     31  C   UNL     1      14.644   1.142  52.933  0.00  0.00    +0.000 A 
ATOM     32  C   UNL     1      15.576   0.103  52.653  0.00  0.00    +0.000 A 
BRANCH  30  33
ATOM     33  O   UNL     1      13.049  -0.224  54.083  0.00  0.00    +0.000 OA
ATOM     34  H   UNL     1      13.560  -0.695  54.710  0.00  0.00    +0.000 HD
ENDBRANCH  30  33
ENDBRANCH  21  22
ENDBRANCH   1  21
TORSDOF 8
ENDMDL
MODEL 8
REMARK VINA RESULT:    -7.983      2.704      3.686
REMARK INTER + INTRA:         -13.023
REMARK INTER:                 -11.609
REMARK INTRA:                  -1.414
REMARK UNBOUND:                -1.540
REMARK  Name = 
REMARK  9 active torsions:
REMARK  status: ('A' for Active; 'I' for Inactive)
REMARK    1  A    between atoms: C_2  and  C_3
REMARK    2  A    between atoms: C_3  and  N_4
REMARK    3  A    between atoms: N_4  and  C_5
REMARK    4  A    between atoms: N_4  and  C_18
REMARK    5  A    between atoms: C_5  and  C_6
REMARK    6  A    between atoms: C_11  and  C_12
REMARK    7  A    between atoms: C_14  and  O_15
REMARK    8  A    between atoms: C_21  and  C_22
REMARK    9  A    between atoms: N_24  and  C_25
REMARK                            x       y       z     vdW  Elec       q    Type
REMARK                         _______ _______ _______ _____ _____    ______ ____
ROOT
ATOM      1  N   UNL     1      23.133   4.629  49.274  0.00  0.00    +0.000 N 
ENDROOT
BRANCH   1   2
ATOM      2  C   UNL     1      24.389   5.151  48.967  0.00  0.00    +0.000 A 
ATOM      3  C   UNL     1      25.599   4.470  49.188  0.00  0.00    +0.000 A 
ATOM      4  C   UNL     1      26.859   5.062  48.944  0.00  0.00    +0.000 A 
ATOM      5  C   UNL     1      26.961   6.354  48.416  0.00  0.00    +0.000 A 
ATOM      6  C   UNL     1      25.776   7.018  48.124  0.00  0.00    +0.000 A 
ATOM      7  C   UNL     1      24.536   6.446  48.443  0.00  0.00    +0.000 A 
BRANCH   5   8
ATOM      8  C   UNL     1      28.315   6.999  48.293  0.00  0.00    +0.000 C 
ATOM      9  O   UNL     1      29.306   6.298  48.474  0.00  0.00    +0.000 OA
ATOM     10  N   UNL     1      28.326   8.361  48.025  0.00  0.00    +0.000 N 
ATOM     11  H   UNL     1      27.471   8.752  47.733  0.00  0.00    +0.000 HD
BRANCH  10  12
ATOM     12  C   UNL     1      29.415   9.254  48.123  0.00  0.00    +0.000 A 
ATOM     13  C   UNL     1      29.596  10.147  49.177  0.00  0.00    +0.000 A 
ATOM     14  C   UNL     1      30.618  11.100  49.127  0.00  0.00    +0.000 A 
ATOM     15  C   UNL     1      31.483  11.150  48.036  0.00  0.00    +0.000 A 
ATOM     16  C   UNL     1      31.349  10.224  47.006  0.00  0.00    +0.000 A 
ATOM     17  C   UNL     1      30.322   9.278  47.051  0.00  0.00    +0.000 A 
ENDBRANCH  10  12
ENDBRANCH   5   8
ENDBRANCH   1   2
BRANCH   1  18
ATOM     18  C   UNL     1      22.274   5.192  50.331  0.00  0.00    +0.000 C 
BRANCH  18  20
ATOM     19  C   UNL     1      23.435   4.981  52.734  0.00  0.00    +0.000 C 
ATOM     20  C   UNL     1      22.927   5.118  51.653  0.00  0.00    +0.000 C 
ENDBRANCH  18  20
ENDBRANCH   1  18
BRANCH   1  21
ATOM     21  C   UNL     1      22.729   3.286  48.817  0.00  0.00    +0.000 C 
BRANCH  21  22
ATOM     22  C   UNL     1      22.663   2.226  49.900  0.00  0.00    +0.000 A 
ATOM     23  C   UNL     1      21.437   1.580  50.115  0.00  0.00    +0.000 A 
ATOM     24  C   UNL     1      21.258   0.701  51.187  0.00  0.00    +0.000 A 
ATOM     25  C   UNL     1      22.281   0.426  52.080  0.00  0.00    +0.000 A 
ATOM     26  N   UNL     1      22.038  -0.374  53.129  0.00  0.00    +0.000 NA
ATOM     27  C   UNL     1      23.047  -0.611  53.988  0.00  0.00    +0.000 A 
ATOM     28  C   UNL     1      22.730  -1.427  55.206  0.00  0.00    +0.000 C 
ATOM     29  N   UNL     1      24.290  -0.134  53.849  0.00  0.00    +0.000 NA
ATOM     30  C   UNL     1      24.486   0.657  52.788  0.00  0.00    +0.000 A 
ATOM     31  C   UNL     1      23.523   1.022  51.855  0.00  0.00    +0.000 A 
ATOM     32  C   UNL     1      23.719   1.927  50.772  0.00  0.00    +0.000 A 
BRANCH  30  33
ATOM     33  O   UNL     1      25.769   1.095  52.681  0.00  0.00    +0.000 OA
ATOM     34  H   UNL     1      25.953   2.014  52.694  0.00  0.00    +0.000 HD
ENDBRANCH  30  33
ENDBRANCH  21  22
ENDBRANCH   1  21
TORSDOF 8
ENDMDL
MODEL 9
REMARK VINA RESULT:    -7.850      4.464     10.456
REMARK INTER + INTRA:         -12.832
REMARK INTER:                 -11.832
REMARK INTRA:                  -0.999
REMARK UNBOUND:                -1.540
REMARK  Name = 
REMARK  9 active torsions:
REMARK  status: ('A' for Active; 'I' for Inactive)
REMARK    1  A    between atoms: C_2  and  C_3
REMARK    2  A    between atoms: C_3  and  N_4
REMARK    3  A    between atoms: N_4  and  C_5
REMARK    4  A    between atoms: N_4  and  C_18
REMARK    5  A    between atoms: C_5  and  C_6
REMARK    6  A    between atoms: C_11  and  C_12
REMARK    7  A    between atoms: C_14  and  O_15
REMARK    8  A    between atoms: C_21  and  C_22
REMARK    9  A    between atoms: N_24  and  C_25
REMARK                            x       y       z     vdW  Elec       q    Type
REMARK                         _______ _______ _______ _____ _____    ______ ____
ROOT
ATOM      1  N   UNL     1      24.840   0.070  53.300  0.00  0.00    +0.000 N 
ENDROOT
BRANCH   1   2
ATOM      2  C   UNL     1      23.455  -0.087  53.315  0.00  0.00    +0.000 A 
ATOM      3  C   UNL     1      22.749  -0.742  54.340  0.00  0.00    +0.000 A 
ATOM      4  C   UNL     1      21.353  -0.959  54.282  0.00  0.00    +0.000 A 
ATOM      5  C   UNL     1      20.591  -0.480  53.211  0.00  0.00    +0.000 A 
ATOM      6  C   UNL     1      21.259   0.232  52.221  0.00  0.00    +0.000 A 
ATOM      7  C   UNL     1      22.654   0.372  52.256  0.00  0.00    +0.000 A 
BRANCH   5   8
ATOM      8  C   UNL     1      19.134  -0.843  53.118  0.00  0.00    +0.000 C 
ATOM      9  O   UNL     1      18.747  -1.835  53.727  0.00  0.00    +0.000 OA
ATOM     10  N   UNL     1      18.349  -0.037  52.305  0.00  0.00    +0.000 N 
ATOM     11  H   UNL     1      18.751   0.817  52.023  0.00  0.00    +0.000 HD
BRANCH  10  12
ATOM     12  C   UNL     1      17.044  -0.294  51.830  0.00  0.00    +0.000 A 
ATOM     13  C   UNL     1      15.939  -0.482  52.657  0.00  0.00    +0.000 A 
ATOM     14  C   UNL     1      14.712  -0.878  52.117  0.00  0.00    +0.000 A 
ATOM     15  C   UNL     1      14.574  -1.065  50.743  0.00  0.00    +0.000 A 
ATOM     16  C   UNL     1      15.655  -0.820  49.901  0.00  0.00    +0.000 A 
ATOM     17  C   UNL     1      16.884  -0.434  50.442  0.00  0.00    +0.000 A 
ENDBRANCH  10  12
ENDBRANCH   5   8
ENDBRANCH   1   2
BRANCH   1  18
ATOM     18  C   UNL     1      25.772  -1.060  53.461  0.00  0.00    +0.000 C 
BRANCH  18  20
ATOM     19  C   UNL     1      28.342  -0.340  53.245  0.00  0.00    +0.000 C 
ATOM     20  C   UNL     1      27.177  -0.621  53.337  0.00  0.00    +0.000 C 
ENDBRANCH  18  20
ENDBRANCH   1  18
BRANCH   1  21
ATOM     21  C   UNL     1      25.462   1.398  53.473  0.00  0.00    +0.000 C 
BRANCH  21  22
ATOM     22  C   UNL     1      25.358   2.322  52.276  0.00  0.00    +0.000 A 
ATOM     23  C   UNL     1      26.273   2.146  51.227  0.00  0.00    +0.000 A 
ATOM     24  C   UNL     1      26.336   3.047  50.160  0.00  0.00    +0.000 A 
ATOM     25  C   UNL     1      25.499   4.150  50.090  0.00  0.00    +0.000 A 
ATOM     26  N   UNL     1      25.646   5.019  49.078  0.00  0.00    +0.000 NA
ATOM     27  C   UNL     1      24.829   6.088  49.044  0.00  0.00    +0.000 A 
ATOM     28  C   UNL     1      25.072   7.099  47.963  0.00  0.00    +0.000 C 
ATOM     29  N   UNL     1      23.853   6.327  49.928  0.00  0.00    +0.000 NA
ATOM     30  C   UNL     1      23.744   5.433  50.918  0.00  0.00    +0.000 A 
ATOM     31  C   UNL     1      24.551   4.316  51.099  0.00  0.00    +0.000 A 
ATOM     32  C   UNL     1      24.479   3.412  52.197  0.00  0.00    +0.000 A 
BRANCH  30  33
ATOM     33  O   UNL     1      22.725   5.709  51.774  0.00  0.00    +0.000 OA
ATOM     34  H   UNL     1      22.757   6.479  52.308  0.00  0.00    +0.000 HD
ENDBRANCH  30  33
ENDBRANCH  21  22
ENDBRANCH   1  21
TORSDOF 8
ENDMDL
