MODEL 1
REMARK VINA RESULT:    -7.457      0.000      0.000
REMARK INTER + INTRA:         -13.802
REMARK INTER:                 -10.944
REMARK INTRA:                  -2.858
REMARK UNBOUND:                -2.858
REMARK  Name = 
REMARK  11 active torsions:
REMARK  status: ('A' for Active; 'I' for Inactive)
REMARK    1  A    between atoms: C_1  and  O_2
REMARK    2  A    between atoms: O_2  and  C_3
REMARK    3  A    between atoms: C_6  and  C_7
REMARK    4  A    between atoms: C_8  and  C_9
REMARK    5  A    between atoms: C_12  and  C_13
REMARK    6  A    between atoms: N_23  and  C_24
REMARK    7  A    between atoms: C_24  and  C_25
REMARK    8  A    between atoms: C_26  and  C_27
REMARK    9  A    between atoms: C_27  and  C_28
REMARK   10  A    between atoms: C_28  and  C_29
REMARK   11  A    between atoms: C_28  and  C_30
REMARK                            x       y       z     vdW  Elec       q    Type
REMARK                         _______ _______ _______ _____ _____    ______ ____
ROOT
ATOM      1  C   UNL     1      24.217   1.442  53.274  0.00  0.00    +0.000 C 
ATOM      2  C   UNL     1      23.038   0.995  52.396  0.00  0.00    +0.000 C 
ATOM      3  C   UNL     1      22.192   2.274  52.265  0.00  0.00    +0.000 C 
ATOM      4  C   UNL     1      23.165   3.423  52.579  0.00  0.00    +0.000 C 
ATOM      5  N   UNL     1      24.495   2.848  52.865  0.00  0.00    +0.000 N 
ATOM      6  H   UNL     1      24.994   3.330  53.613  0.00  0.00    +0.000 HD
ENDROOT
BRANCH   3   7
ATOM      7  C   UNL     1      21.448   2.453  50.949  0.00  0.00    +0.000 A 
ATOM      8  C   UNL     1      21.839   1.677  49.830  0.00  0.00    +0.000 A 
ATOM      9  C   UNL     1      21.141   1.731  48.621  0.00  0.00    +0.000 A 
ATOM     10  C   UNL     1      20.049   2.564  48.547  0.00  0.00    +0.000 A 
ATOM     11  C   UNL     1      19.662   3.334  49.615  0.00  0.00    +0.000 A 
ATOM     12  C   UNL     1      20.340   3.312  50.818  0.00  0.00    +0.000 A 
ATOM     13  O   UNL     1      18.551   4.076  49.341  0.00  0.00    +0.000 OA
ATOM     14  C   UNL     1      18.249   3.624  48.003  0.00  0.00    +0.000 C 
ATOM     15  O   UNL     1      19.236   2.719  47.468  0.00  0.00    +0.000 OA
ENDBRANCH   3   7
BRANCH   1  19
ATOM     16  C   UNL     1      27.935  -0.813  53.485  0.00  0.00    +0.000 A 
ATOM     17  C   UNL     1      27.002  -1.107  52.491  0.00  0.00    +0.000 A 
ATOM     18  C   UNL     1      25.775  -0.429  52.438  0.00  0.00    +0.000 A 
ATOM     19  C   UNL     1      25.460   0.568  53.370  0.00  0.00    +0.000 A 
ATOM     20  C   UNL     1      26.394   0.827  54.391  0.00  0.00    +0.000 A 
ATOM     21  C   UNL     1      27.612   0.141  54.449  0.00  0.00    +0.000 A 
BRANCH  16  23
ATOM     22  C   UNL     1      30.284  -0.487  53.592  0.00  0.00    +0.000 C 
ATOM     23  O   UNL     1      29.173  -1.376  53.616  0.00  0.00    +0.000 OA
ENDBRANCH  16  23
ENDBRANCH   1  19
BRANCH   2  24
ATOM     24  C   UNL     1      22.256  -0.083  53.107  0.00  0.00    +0.000 C 
ATOM     25  O   UNL     1      22.400  -1.290  52.995  0.00  0.00    +0.000 OA
ATOM     26  O   UNL     1      21.305   0.408  53.922  0.00  0.00    +0.000 OA
ENDBRANCH   2  24
BRANCH   5  27
ATOM     27  C   UNL     1      25.416   3.005  51.728  0.00  0.00    +0.000 C 
BRANCH  27  28
ATOM     28  C   UNL     1      24.930   4.083  50.794  0.00  0.00    +0.000 C 
ATOM     29  C   UNL     1      24.762   3.962  49.465  0.00  0.00    +0.000 C 
BRANCH  29  30
ATOM     30  C   UNL     1      24.245   5.080  48.597  0.00  0.00    +0.000 C 
BRANCH  30  31
ATOM     31  C   UNL     1      22.708   5.119  48.478  0.00  0.00    +0.000 C 
ATOM     32  C   UNL     1      22.091   6.263  49.285  0.00  0.00    +0.000 C 
ATOM     33  C   UNL     1      22.300   5.251  47.006  0.00  0.00    +0.000 C 
ENDBRANCH  30  31
ENDBRANCH  29  30
ENDBRANCH  27  28
ENDBRANCH   5  27
TORSDOF 8
ENDMDL
MODEL 2
REMARK VINA RESULT:    -7.365      2.600      8.088
REMARK INTER + INTRA:         -13.668
REMARK INTER:                 -11.794
REMARK INTRA:                  -1.874
REMARK UNBOUND:                -2.858
REMARK  Name = 
REMARK  11 active torsions:
REMARK  status: ('A' for Active; 'I' for Inactive)
REMARK    1  A    between atoms: C_1  and  O_2
REMARK    2  A    between atoms: O_2  and  C_3
REMARK    3  A    between atoms: C_6  and  C_7
REMARK    4  A    between atoms: C_8  and  C_9
REMARK    5  A    between atoms: C_12  and  C_13
REMARK    6  A    between atoms: N_23  and  C_24
REMARK    7  A    between atoms: C_24  and  C_25
REMARK    8  A    between atoms: C_26  and  C_27
REMARK    9  A    between atoms: C_27  and  C_28
REMARK   10  A    between atoms: C_28  and  C_29
REMARK   11  A    between atoms: C_28  and  C_30
REMARK                            x       y       z     vdW  Elec       q    Type
REMARK                         _______ _______ _______ _____ _____    ______ ____
ROOT
ATOM      1  C   UNL     1      23.681   3.111  51.168  0.00  0.00    +0.000 C 
ATOM      2  C   UNL     1      25.110   2.598  50.935  0.00  0.00    +0.000 C 
ATOM      3  C   UNL     1      25.679   2.480  52.359  0.00  0.00    +0.000 C 
ATOM      4  C   UNL     1      24.443   2.396  53.271  0.00  0.00    +0.000 C 
ATOM      5  N   UNL     1      23.233   2.452  52.427  0.00  0.00    +0.000 N 
ATOM      6  H   UNL     1      22.472   2.989  52.843  0.00  0.00    +0.000 HD
ENDROOT
BRANCH   3   7
ATOM      7  C   UNL     1      26.679   1.356  52.590  0.00  0.00    +0.000 A 
ATOM      8  C   UNL     1      27.927   1.663  53.188  0.00  0.00    +0.000 A 
ATOM      9  C   UNL     1      28.852   0.665  53.507  0.00  0.00    +0.000 A 
ATOM     10  C   UNL     1      28.512  -0.638  53.225  0.00  0.00    +0.000 A 
ATOM     11  C   UNL     1      27.315  -0.954  52.634  0.00  0.00    +0.000 A 
ATOM     12  C   UNL     1      26.387   0.011  52.296  0.00  0.00    +0.000 A 
ATOM     13  O   UNL     1      27.166  -2.298  52.454  0.00  0.00    +0.000 OA
ATOM     14  C   UNL     1      28.379  -2.787  53.067  0.00  0.00    +0.000 C 
ATOM     15  O   UNL     1      29.269  -1.736  53.494  0.00  0.00    +0.000 OA
ENDBRANCH   3   7
BRANCH   1  19
ATOM     16  C   UNL     1      20.563   2.843  48.142  0.00  0.00    +0.000 A 
ATOM     17  C   UNL     1      21.655   1.977  48.090  0.00  0.00    +0.000 A 
ATOM     18  C   UNL     1      22.696   2.081  49.023  0.00  0.00    +0.000 A 
ATOM     19  C   UNL     1      22.662   3.047  50.038  0.00  0.00    +0.000 A 
ATOM     20  C   UNL     1      21.574   3.939  50.055  0.00  0.00    +0.000 A 
ATOM     21  C   UNL     1      20.542   3.841  49.115  0.00  0.00    +0.000 A 
BRANCH  16  23
ATOM     22  C   UNL     1      18.384   3.657  47.666  0.00  0.00    +0.000 C 
ATOM     23  O   UNL     1      19.475   2.813  47.315  0.00  0.00    +0.000 OA
ENDBRANCH  16  23
ENDBRANCH   1  19
BRANCH   2  24
ATOM     24  C   UNL     1      25.891   3.616  50.138  0.00  0.00    +0.000 C 
ATOM     25  O   UNL     1      26.835   3.401  49.395  0.00  0.00    +0.000 OA
ATOM     26  O   UNL     1      25.458   4.875  50.326  0.00  0.00    +0.000 OA
ENDBRANCH   2  24
BRANCH   5  27
ATOM     27  C   UNL     1      22.618   1.124  52.261  0.00  0.00    +0.000 C 
BRANCH  27  28
ATOM     28  C   UNL     1      21.121   1.209  52.403  0.00  0.00    +0.000 C 
ATOM     29  C   UNL     1      20.215   0.716  51.539  0.00  0.00    +0.000 C 
BRANCH  29  30
ATOM     30  C   UNL     1      18.728   0.816  51.761  0.00  0.00    +0.000 C 
BRANCH  30  31
ATOM     31  C   UNL     1      18.021  -0.549  51.874  0.00  0.00    +0.000 C 
ATOM     32  C   UNL     1      18.237  -1.205  53.240  0.00  0.00    +0.000 C 
ATOM     33  C   UNL     1      16.518  -0.384  51.617  0.00  0.00    +0.000 C 
ENDBRANCH  30  31
ENDBRANCH  29  30
ENDBRANCH  27  28
ENDBRANCH   5  27
TORSDOF 8
ENDMDL
MODEL 3
REMARK VINA RESULT:    -7.195      3.098      6.672
REMARK INTER + INTRA:         -13.417
REMARK INTER:                 -12.199
REMARK INTRA:                  -1.219
REMARK UNBOUND:                -2.858
REMARK  Name = 
REMARK  11 active torsions:
REMARK  status: ('A' for Active; 'I' for Inactive)
REMARK    1  A    between atoms: C_1  and  O_2
REMARK    2  A    between atoms: O_2  and  C_3
REMARK    3  A    between atoms: C_6  and  C_7
REMARK    4  A    between atoms: C_8  and  C_9
REMARK    5  A    between atoms: C_12  and  C_13
REMARK    6  A    between atoms: N_23  and  C_24
REMARK    7  A    between atoms: C_24  and  C_25
REMARK    8  A    between atoms: C_26  and  C_27
REMARK    9  A    between atoms: C_27  and  C_28
REMARK   10  A    between atoms: C_28  and  C_29
REMARK   11  A    between atoms: C_28  and  C_30
REMARK                            x       y       z     vdW  Elec       q    Type
REMARK                         _______ _______ _______ _____ _____    ______ ____
ROOT
ATOM      1  C   UNL     1      22.164   3.611  50.946  0.00  0.00    +0.000 C 
ATOM      2  C   UNL     1      23.203   3.548  49.816  0.00  0.00    +0.000 C 
ATOM      3  C   UNL     1      23.729   4.992  49.741  0.00  0.00    +0.000 C 
ATOM      4  C   UNL     1      23.392   5.606  51.110  0.00  0.00    +0.000 C 
ATOM      5  N   UNL     1      22.721   4.578  51.932  0.00  0.00    +0.000 N 
ATOM      6  H   UNL     1      21.967   4.950  52.511  0.00  0.00    +0.000 HD
ENDROOT
BRANCH   3   7
ATOM      7  C   UNL     1      25.191   5.153  49.348  0.00  0.00    +0.000 A 
ATOM      8  C   UNL     1      26.058   4.038  49.464  0.00  0.00    +0.000 A 
ATOM      9  C   UNL     1      27.387   4.096  49.039  0.00  0.00    +0.000 A 
ATOM     10  C   UNL     1      27.835   5.278  48.494  0.00  0.00    +0.000 A 
ATOM     11  C   UNL     1      27.016   6.373  48.385  0.00  0.00    +0.000 A 
ATOM     12  C   UNL     1      25.702   6.349  48.809  0.00  0.00    +0.000 A 
ATOM     13  O   UNL     1      27.646   7.434  47.805  0.00  0.00    +0.000 OA
ATOM     14  C   UNL     1      28.932   6.850  47.501  0.00  0.00    +0.000 C 
ATOM     15  O   UNL     1      29.082   5.505  47.999  0.00  0.00    +0.000 OA
ENDBRANCH   3   7
BRANCH   1  19
ATOM     16  C   UNL     1      20.811   0.009  52.982  0.00  0.00    +0.000 A 
ATOM     17  C   UNL     1      21.733  -0.089  51.942  0.00  0.00    +0.000 A 
ATOM     18  C   UNL     1      22.142   1.053  51.237  0.00  0.00    +0.000 A 
ATOM     19  C   UNL     1      21.646   2.321  51.568  0.00  0.00    +0.000 A 
ATOM     20  C   UNL     1      20.687   2.400  52.594  0.00  0.00    +0.000 A 
ATOM     21  C   UNL     1      20.272   1.258  53.287  0.00  0.00    +0.000 A 
BRANCH  16  23
ATOM     22  C   UNL     1      21.360  -1.757  54.472  0.00  0.00    +0.000 C 
ATOM     23  O   UNL     1      20.369  -1.022  53.763  0.00  0.00    +0.000 OA
ENDBRANCH  16  23
ENDBRANCH   1  19
BRANCH   2  24
ATOM     24  C   UNL     1      22.523   3.167  48.522  0.00  0.00    +0.000 C 
ATOM     25  O   UNL     1      22.811   2.235  47.788  0.00  0.00    +0.000 OA
ATOM     26  O   UNL     1      21.513   3.992  48.196  0.00  0.00    +0.000 OA
ENDBRANCH   2  24
BRANCH   5  27
ATOM     27  C   UNL     1      23.629   4.003  52.939  0.00  0.00    +0.000 C 
BRANCH  27  28
ATOM     28  C   UNL     1      24.722   3.207  52.277  0.00  0.00    +0.000 C 
ATOM     29  C   UNL     1      25.238   2.048  52.723  0.00  0.00    +0.000 C 
BRANCH  29  30
ATOM     30  C   UNL     1      26.317   1.292  51.990  0.00  0.00    +0.000 C 
BRANCH  30  31
ATOM     31  C   UNL     1      26.356  -0.215  52.318  0.00  0.00    +0.000 C 
ATOM     32  C   UNL     1      27.680  -0.636  52.959  0.00  0.00    +0.000 C 
ATOM     33  C   UNL     1      25.196  -0.578  53.253  0.00  0.00    +0.000 C 
ENDBRANCH  30  31
ENDBRANCH  29  30
ENDBRANCH  27  28
ENDBRANCH   5  27
TORSDOF 8
ENDMDL
MODEL 4
REMARK VINA RESULT:    -7.086      2.994      7.008
REMARK INTER + INTRA:         -13.258
REMARK INTER:                 -11.566
REMARK INTRA:                  -1.692
REMARK UNBOUND:                -2.858
REMARK  Name = 
REMARK  11 active torsions:
REMARK  status: ('A' for Active; 'I' for Inactive)
REMARK    1  A    between atoms: C_1  and  O_2
REMARK    2  A    between atoms: O_2  and  C_3
REMARK    3  A    between atoms: C_6  and  C_7
REMARK    4  A    between atoms: C_8  and  C_9
REMARK    5  A    between atoms: C_12  and  C_13
REMARK    6  A    between atoms: N_23  and  C_24
REMARK    7  A    between atoms: C_24  and  C_25
REMARK    8  A    between atoms: C_26  and  C_27
REMARK    9  A    between atoms: C_27  and  C_28
REMARK   10  A    between atoms: C_28  and  C_29
REMARK   11  A    between atoms: C_28  and  C_30
REMARK                            x       y       z     vdW  Elec       q    Type
REMARK                         _______ _______ _______ _____ _____    ______ ____
ROOT
ATOM      1  C   UNL     1      24.308   4.647  49.445  0.00  0.00    +0.000 C 
ATOM      2  C   UNL     1      23.130   4.379  50.392  0.00  0.00    +0.000 C 
ATOM      3  C   UNL     1      22.873   2.872  50.218  0.00  0.00    +0.000 C 
ATOM      4  C   UNL     1      24.190   2.311  49.656  0.00  0.00    +0.000 C 
ATOM      5  N   UNL     1      25.153   3.422  49.521  0.00  0.00    +0.000 N 
ATOM      6  H   UNL     1      25.736   3.355  48.686  0.00  0.00    +0.000 HD
ENDROOT
BRANCH   3   7
ATOM      7  C   UNL     1      22.377   2.131  51.452  0.00  0.00    +0.000 A 
ATOM      8  C   UNL     1      21.048   2.350  51.895  0.00  0.00    +0.000 A 
ATOM      9  C   UNL     1      20.506   1.636  52.966  0.00  0.00    +0.000 A 
ATOM     10  C   UNL     1      21.304   0.700  53.582  0.00  0.00    +0.000 A 
ATOM     11  C   UNL     1      22.596   0.482  53.178  0.00  0.00    +0.000 A 
ATOM     12  C   UNL     1      23.164   1.181  52.132  0.00  0.00    +0.000 A 
ATOM     13  O   UNL     1      23.208  -0.495  53.907  0.00  0.00    +0.000 OA
ATOM     14  C   UNL     1      22.123  -0.909  54.766  0.00  0.00    +0.000 C 
ATOM     15  O   UNL     1      20.935  -0.107  54.614  0.00  0.00    +0.000 OA
ENDBRANCH   3   7
BRANCH   1  19
ATOM     16  C   UNL     1      26.784   8.203  49.864  0.00  0.00    +0.000 A 
ATOM     17  C   UNL     1      25.688   8.019  50.706  0.00  0.00    +0.000 A 
ATOM     18  C   UNL     1      24.847   6.908  50.553  0.00  0.00    +0.000 A 
ATOM     19  C   UNL     1      25.091   5.948  49.562  0.00  0.00    +0.000 A 
ATOM     20  C   UNL     1      26.178   6.166  48.695  0.00  0.00    +0.000 A 
ATOM     21  C   UNL     1      27.009   7.282  48.842  0.00  0.00    +0.000 A 
BRANCH  16  23
ATOM     22  C   UNL     1      28.873   9.084  49.154  0.00  0.00    +0.000 C 
ATOM     23  O   UNL     1      27.694   9.221  49.940  0.00  0.00    +0.000 OA
ENDBRANCH  16  23
ENDBRANCH   1  19
BRANCH   2  24
ATOM     24  C   UNL     1      21.927   5.174  49.942  0.00  0.00    +0.000 C 
ATOM     25  O   UNL     1      21.471   5.241  48.812  0.00  0.00    +0.000 OA
ATOM     26  O   UNL     1      21.355   5.871  50.940  0.00  0.00    +0.000 OA
ENDBRANCH   2  24
BRANCH   5  27
ATOM     27  C   UNL     1      26.156   3.412  50.599  0.00  0.00    +0.000 C 
BRANCH  27  28
ATOM     28  C   UNL     1      26.495   1.999  50.998  0.00  0.00    +0.000 C 
ATOM     29  C   UNL     1      26.857   1.589  52.227  0.00  0.00    +0.000 C 
BRANCH  29  30
ATOM     30  C   UNL     1      27.156   0.150  52.559  0.00  0.00    +0.000 C 
BRANCH  30  31
ATOM     31  C   UNL     1      28.236  -0.029  53.645  0.00  0.00    +0.000 C 
ATOM     32  C   UNL     1      29.205  -1.167  53.319  0.00  0.00    +0.000 C 
ATOM     33  C   UNL     1      29.020   1.276  53.824  0.00  0.00    +0.000 C 
ENDBRANCH  30  31
ENDBRANCH  29  30
ENDBRANCH  27  28
ENDBRANCH   5  27
TORSDOF 8
ENDMDL
MODEL 5
REMARK VINA RESULT:    -7.066      2.791      5.882
REMARK INTER + INTRA:         -13.229
REMARK INTER:                 -11.433
REMARK INTRA:                  -1.796
REMARK UNBOUND:                -2.858
REMARK  Name = 
REMARK  11 active torsions:
REMARK  status: ('A' for Active; 'I' for Inactive)
REMARK    1  A    between atoms: C_1  and  O_2
REMARK    2  A    between atoms: O_2  and  C_3
REMARK    3  A    between atoms: C_6  and  C_7
REMARK    4  A    between atoms: C_8  and  C_9
REMARK    5  A    between atoms: C_12  and  C_13
REMARK    6  A    between atoms: N_23  and  C_24
REMARK    7  A    between atoms: C_24  and  C_25
REMARK    8  A    between atoms: C_26  and  C_27
REMARK    9  A    between atoms: C_27  and  C_28
REMARK   10  A    between atoms: C_28  and  C_29
REMARK   11  A    between atoms: C_28  and  C_30
REMARK                            x       y       z     vdW  Elec       q    Type
REMARK                         _______ _______ _______ _____ _____    ______ ____
ROOT
ATOM      1  C   UNL     1      23.843   2.469  49.803  0.00  0.00    +0.000 C 
ATOM      2  C   UNL     1      22.369   2.750  49.478  0.00  0.00    +0.000 C 
ATOM      3  C   UNL     1      21.628   1.599  50.180  0.00  0.00    +0.000 C 
ATOM      4  C   UNL     1      22.608   1.097  51.253  0.00  0.00    +0.000 C 
ATOM      5  N   UNL     1      23.837   1.912  51.185  0.00  0.00    +0.000 N 
ATOM      6  H   UNL     1      24.690   1.375  51.341  0.00  0.00    +0.000 HD
ENDROOT
BRANCH   3   7
ATOM      7  C   UNL     1      20.246   1.928  50.728  0.00  0.00    +0.000 A 
ATOM      8  C   UNL     1      19.931   3.276  51.029  0.00  0.00    +0.000 A 
ATOM      9  C   UNL     1      18.654   3.654  51.451  0.00  0.00    +0.000 A 
ATOM     10  C   UNL     1      17.698   2.670  51.564  0.00  0.00    +0.000 A 
ATOM     11  C   UNL     1      17.986   1.357  51.290  0.00  0.00    +0.000 A 
ATOM     12  C   UNL     1      19.242   0.952  50.884  0.00  0.00    +0.000 A 
ATOM     13  O   UNL     1      16.901   0.546  51.448  0.00  0.00    +0.000 OA
ATOM     14  C   UNL     1      15.886   1.518  51.782  0.00  0.00    +0.000 C 
ATOM     15  O   UNL     1      16.401   2.857  51.926  0.00  0.00    +0.000 OA
ENDBRANCH   3   7
BRANCH   1  19
ATOM     16  C   UNL     1      26.726   5.596  48.875  0.00  0.00    +0.000 A 
ATOM     17  C   UNL     1      27.172   4.310  49.176  0.00  0.00    +0.000 A 
ATOM     18  C   UNL     1      26.264   3.302  49.529  0.00  0.00    +0.000 A 
ATOM     19  C   UNL     1      24.887   3.555  49.577  0.00  0.00    +0.000 A 
ATOM     20  C   UNL     1      24.454   4.867  49.309  0.00  0.00    +0.000 A 
ATOM     21  C   UNL     1      25.363   5.874  48.968  0.00  0.00    +0.000 A 
BRANCH  16  23
ATOM     22  C   UNL     1      28.836   6.335  48.074  0.00  0.00    +0.000 C 
ATOM     23  O   UNL     1      27.508   6.646  48.482  0.00  0.00    +0.000 OA
ENDBRANCH  16  23
ENDBRANCH   1  19
BRANCH   2  24
ATOM     24  C   UNL     1      22.156   2.680  47.984  0.00  0.00    +0.000 C 
ATOM     25  O   UNL     1      22.656   1.883  47.207  0.00  0.00    +0.000 OA
ATOM     26  O   UNL     1      21.329   3.637  47.526  0.00  0.00    +0.000 OA
ENDBRANCH   2  24
BRANCH   5  27
ATOM     27  C   UNL     1      23.896   2.908  52.268  0.00  0.00    +0.000 C 
BRANCH  27  28
ATOM     28  C   UNL     1      25.036   2.608  53.205  0.00  0.00    +0.000 C 
ATOM     29  C   UNL     1      26.083   1.804  52.947  0.00  0.00    +0.000 C 
BRANCH  29  30
ATOM     30  C   UNL     1      27.203   1.572  53.927  0.00  0.00    +0.000 C 
BRANCH  30  31
ATOM     31  C   UNL     1      27.702   0.113  53.972  0.00  0.00    +0.000 C 
ATOM     32  C   UNL     1      27.179  -0.717  52.797  0.00  0.00    +0.000 C 
ATOM     33  C   UNL     1      29.235   0.083  53.977  0.00  0.00    +0.000 C 
ENDBRANCH  30  31
ENDBRANCH  29  30
ENDBRANCH  27  28
ENDBRANCH   5  27
TORSDOF 8
ENDMDL
MODEL 6
REMARK VINA RESULT:    -7.012      2.957      5.602
REMARK INTER + INTRA:         -13.149
REMARK INTER:                 -11.529
REMARK INTRA:                  -1.621
REMARK UNBOUND:                -2.858
REMARK  Name = 
REMARK  11 active torsions:
REMARK  status: ('A' for Active; 'I' for Inactive)
REMARK    1  A    between atoms: C_1  and  O_2
REMARK    2  A    between atoms: O_2  and  C_3
REMARK    3  A    between atoms: C_6  and  C_7
REMARK    4  A    between atoms: C_8  and  C_9
REMARK    5  A    between atoms: C_12  and  C_13
REMARK    6  A    between atoms: N_23  and  C_24
REMARK    7  A    between atoms: C_24  and  C_25
REMARK    8  A    between atoms: C_26  and  C_27
REMARK    9  A    between atoms: C_27  and  C_28
REMARK   10  A    between atoms: C_28  and  C_29
REMARK   11  A    between atoms: C_28  and  C_30
REMARK                            x       y       z     vdW  Elec       q    Type
REMARK                         _______ _______ _______ _____ _____    ______ ____
ROOT
ATOM      1  C   UNL     1      24.839   2.969  50.282  0.00  0.00    +0.000 C 
ATOM      2  C   UNL     1      24.736   4.491  50.104  0.00  0.00    +0.000 C 
ATOM      3  C   UNL     1      23.640   4.648  49.036  0.00  0.00    +0.000 C 
ATOM      4  C   UNL     1      22.851   3.329  49.086  0.00  0.00    +0.000 C 
ATOM      5  N   UNL     1      23.446   2.465  50.125  0.00  0.00    +0.000 N 
ATOM      6  H   UNL     1      23.466   1.477  49.871  0.00  0.00    +0.000 HD
ENDROOT
BRANCH   3   7
ATOM      7  C   UNL     1      22.760   5.884  49.154  0.00  0.00    +0.000 A 
ATOM      8  C   UNL     1      22.224   6.224  50.421  0.00  0.00    +0.000 A 
ATOM      9  C   UNL     1      21.483   7.393  50.613  0.00  0.00    +0.000 A 
ATOM     10  C   UNL     1      21.290   8.216  49.527  0.00  0.00    +0.000 A 
ATOM     11  C   UNL     1      21.789   7.899  48.290  0.00  0.00    +0.000 A 
ATOM     12  C   UNL     1      22.514   6.745  48.067  0.00  0.00    +0.000 A 
ATOM     13  O   UNL     1      21.502   8.851  47.357  0.00  0.00    +0.000 OA
ATOM     14  C   UNL     1      20.826   9.832  48.173  0.00  0.00    +0.000 C 
ATOM     15  O   UNL     1      20.626   9.404  49.535  0.00  0.00    +0.000 OA
ENDBRANCH   3   7
BRANCH   1  19
ATOM     16  C   UNL     1      26.780   1.082  53.691  0.00  0.00    +0.000 A 
ATOM     17  C   UNL     1      25.952   2.185  53.889  0.00  0.00    +0.000 A 
ATOM     18  C   UNL     1      25.359   2.841  52.801  0.00  0.00    +0.000 A 
ATOM     19  C   UNL     1      25.572   2.398  51.488  0.00  0.00    +0.000 A 
ATOM     20  C   UNL     1      26.442   1.307  51.300  0.00  0.00    +0.000 A 
ATOM     21  C   UNL     1      27.041   0.663  52.387  0.00  0.00    +0.000 A 
BRANCH  16  23
ATOM     22  C   UNL     1      28.635  -0.248  54.348  0.00  0.00    +0.000 C 
ATOM     23  O   UNL     1      27.380   0.341  54.671  0.00  0.00    +0.000 OA
ENDBRANCH  16  23
ENDBRANCH   1  19
BRANCH   2  24
ATOM     24  C   UNL     1      26.050   5.032  49.594  0.00  0.00    +0.000 C 
ATOM     25  O   UNL     1      26.953   4.398  49.070  0.00  0.00    +0.000 OA
ATOM     26  O   UNL     1      26.182   6.357  49.782  0.00  0.00    +0.000 OA
ENDBRANCH   2  24
BRANCH   5  27
ATOM     27  C   UNL     1      22.636   2.450  51.355  0.00  0.00    +0.000 C 
BRANCH  27  28
ATOM     28  C   UNL     1      22.261   1.040  51.729  0.00  0.00    +0.000 C 
ATOM     29  C   UNL     1      22.836   0.297  52.692  0.00  0.00    +0.000 C 
BRANCH  29  30
ATOM     30  C   UNL     1      22.388  -1.102  53.028  0.00  0.00    +0.000 C 
BRANCH  30  31
ATOM     31  C   UNL     1      21.904  -1.270  54.482  0.00  0.00    +0.000 C 
ATOM     32  C   UNL     1      23.065  -1.421  55.468  0.00  0.00    +0.000 C 
ATOM     33  C   UNL     1      21.039  -0.072  54.888  0.00  0.00    +0.000 C 
ENDBRANCH  30  31
ENDBRANCH  29  30
ENDBRANCH  27  28
ENDBRANCH   5  27
TORSDOF 8
ENDMDL
MODEL 7
REMARK VINA RESULT:    -6.647      2.837      7.650
REMARK INTER + INTRA:         -12.614
REMARK INTER:                 -11.112
REMARK INTRA:                  -1.501
REMARK UNBOUND:                -2.858
REMARK  Name = 
REMARK  11 active torsions:
REMARK  status: ('A' for Active; 'I' for Inactive)
REMARK    1  A    between atoms: C_1  and  O_2
REMARK    2  A    between atoms: O_2  and  C_3
REMARK    3  A    between atoms: C_6  and  C_7
REMARK    4  A    between atoms: C_8  and  C_9
REMARK    5  A    between atoms: C_12  and  C_13
REMARK    6  A    between atoms: N_23  and  C_24
REMARK    7  A    between atoms: C_24  and  C_25
REMARK    8  A    between atoms: C_26  and  C_27
REMARK    9  A    between atoms: C_27  and  C_28
REMARK   10  A    between atoms: C_28  and  C_29
REMARK   11  A    between atoms: C_28  and  C_30
REMARK                            x       y       z     vdW  Elec       q    Type
REMARK                         _______ _______ _______ _____ _____    ______ ____
ROOT
ATOM      1  C   UNL     1      22.026   4.313  49.449  0.00  0.00    +0.000 C 
ATOM      2  C   UNL     1      21.736   3.392  50.644  0.00  0.00    +0.000 C 
ATOM      3  C   UNL     1      22.605   2.156  50.355  0.00  0.00    +0.000 C 
ATOM      4  C   UNL     1      23.686   2.654  49.381  0.00  0.00    +0.000 C 
ATOM      5  N   UNL     1      23.464   4.092  49.129  0.00  0.00    +0.000 N 
ATOM      6  H   UNL     1      23.646   4.368  48.163  0.00  0.00    +0.000 HD
ENDROOT
BRANCH   3   7
ATOM      7  C   UNL     1      23.171   1.436  51.571  0.00  0.00    +0.000 A 
ATOM      8  C   UNL     1      22.373   0.463  52.223  0.00  0.00    +0.000 A 
ATOM      9  C   UNL     1      22.866  -0.294  53.289  0.00  0.00    +0.000 A 
ATOM     10  C   UNL     1      24.164  -0.070  53.689  0.00  0.00    +0.000 A 
ATOM     11  C   UNL     1      24.948   0.876  53.080  0.00  0.00    +0.000 A 
ATOM     12  C   UNL     1      24.484   1.648  52.033  0.00  0.00    +0.000 A 
ATOM     13  O   UNL     1      26.202   0.930  53.613  0.00  0.00    +0.000 OA
ATOM     14  C   UNL     1      26.129  -0.142  54.579  0.00  0.00    +0.000 C 
ATOM     15  O   UNL     1      24.818  -0.733  54.681  0.00  0.00    +0.000 OA
ENDBRANCH   3   7
BRANCH   1  19
ATOM     16  C   UNL     1      21.137   8.574  49.497  0.00  0.00    +0.000 A 
ATOM     17  C   UNL     1      21.300   7.887  50.699  0.00  0.00    +0.000 A 
ATOM     18  C   UNL     1      21.534   6.504  50.707  0.00  0.00    +0.000 A 
ATOM     19  C   UNL     1      21.623   5.780  49.511  0.00  0.00    +0.000 A 
ATOM     20  C   UNL     1      21.417   6.479  48.307  0.00  0.00    +0.000 A 
ATOM     21  C   UNL     1      21.172   7.856  48.302  0.00  0.00    +0.000 A 
BRANCH  16  23
ATOM     22  C   UNL     1      19.611  10.393  49.523  0.00  0.00    +0.000 C 
ATOM     23  O   UNL     1      20.944   9.920  49.361  0.00  0.00    +0.000 OA
ENDBRANCH  16  23
ENDBRANCH   1  19
BRANCH   2  24
ATOM     24  C   UNL     1      20.273   3.017  50.652  0.00  0.00    +0.000 C 
ATOM     25  O   UNL     1      19.706   2.253  49.888  0.00  0.00    +0.000 OA
ATOM     26  O   UNL     1      19.577   3.639  51.620  0.00  0.00    +0.000 OA
ENDBRANCH   2  24
BRANCH   5  27
ATOM     27  C   UNL     1      24.414   4.933  49.875  0.00  0.00    +0.000 C 
BRANCH  27  28
ATOM     28  C   UNL     1      25.834   4.584  49.511  0.00  0.00    +0.000 C 
ATOM     29  C   UNL     1      26.679   5.351  48.799  0.00  0.00    +0.000 C 
BRANCH  29  30
ATOM     30  C   UNL     1      28.099   4.946  48.495  0.00  0.00    +0.000 C 
BRANCH  30  31
ATOM     31  C   UNL     1      29.070   6.135  48.348  0.00  0.00    +0.000 C 
ATOM     32  C   UNL     1      30.469   5.693  47.915  0.00  0.00    +0.000 C 
ATOM     33  C   UNL     1      28.514   7.143  47.336  0.00  0.00    +0.000 C 
ENDBRANCH  30  31
ENDBRANCH  29  30
ENDBRANCH  27  28
ENDBRANCH   5  27
TORSDOF 8
ENDMDL
MODEL 8
REMARK VINA RESULT:    -6.568      2.742      6.811
REMARK INTER + INTRA:         -12.498
REMARK INTER:                 -10.739
REMARK INTRA:                  -1.759
REMARK UNBOUND:                -2.858
REMARK  Name = 
REMARK  11 active torsions:
REMARK  status: ('A' for Active; 'I' for Inactive)
REMARK    1  A    between atoms: C_1  and  O_2
REMARK    2  A    between atoms: O_2  and  C_3
REMARK    3  A    between atoms: C_6  and  C_7
REMARK    4  A    between atoms: C_8  and  C_9
REMARK    5  A    between atoms: C_12  and  C_13
REMARK    6  A    between atoms: N_23  and  C_24
REMARK    7  A    between atoms: C_24  and  C_25
REMARK    8  A    between atoms: C_26  and  C_27
REMARK    9  A    between atoms: C_27  and  C_28
REMARK   10  A    between atoms: C_28  and  C_29
REMARK   11  A    between atoms: C_28  and  C_30
REMARK                            x       y       z     vdW  Elec       q    Type
REMARK                         _______ _______ _______ _____ _____    ______ ____
ROOT
ATOM      1  C   UNL     1      22.088   3.475  49.103  0.00  0.00    +0.000 C 
ATOM      2  C   UNL     1      20.610   3.183  49.400  0.00  0.00    +0.000 C 
ATOM      3  C   UNL     1      20.528   1.650  49.309  0.00  0.00    +0.000 C 
ATOM      4  C   UNL     1      21.974   1.166  49.514  0.00  0.00    +0.000 C 
ATOM      5  N   UNL     1      22.838   2.346  49.720  0.00  0.00    +0.000 N 
ATOM      6  H   UNL     1      23.754   2.261  49.277  0.00  0.00    +0.000 HD
ENDROOT
BRANCH   3   7
ATOM      7  C   UNL     1      19.528   0.976  50.238  0.00  0.00    +0.000 A 
ATOM      8  C   UNL     1      18.169   0.898  49.840  0.00  0.00    +0.000 A 
ATOM      9  C   UNL     1      17.220   0.217  50.606  0.00  0.00    +0.000 A 
ATOM     10  C   UNL     1      17.645  -0.388  51.766  0.00  0.00    +0.000 A 
ATOM     11  C   UNL     1      18.952  -0.313  52.175  0.00  0.00    +0.000 A 
ATOM     12  C   UNL     1      19.911   0.364  51.447  0.00  0.00    +0.000 A 
ATOM     13  O   UNL     1      19.169  -0.990  53.339  0.00  0.00    +0.000 OA
ATOM     14  C   UNL     1      17.860  -1.554  53.570  0.00  0.00    +0.000 C 
ATOM     15  O   UNL     1      16.872  -1.118  52.615  0.00  0.00    +0.000 OA
ENDBRANCH   3   7
BRANCH   1  19
ATOM     16  C   UNL     1      23.964   7.262  50.147  0.00  0.00    +0.000 A 
ATOM     17  C   UNL     1      22.723   6.931  50.690  0.00  0.00    +0.000 A 
ATOM     18  C   UNL     1      22.077   5.741  50.325  0.00  0.00    +0.000 A 
ATOM     19  C   UNL     1      22.665   4.848  49.419  0.00  0.00    +0.000 A 
ATOM     20  C   UNL     1      23.899   5.213  48.850  0.00  0.00    +0.000 A 
ATOM     21  C   UNL     1      24.536   6.407  49.206  0.00  0.00    +0.000 A 
BRANCH  16  23
ATOM     22  C   UNL     1      26.082   8.335  50.094  0.00  0.00    +0.000 C 
ATOM     23  O   UNL     1      24.705   8.369  50.454  0.00  0.00    +0.000 OA
ENDBRANCH  16  23
ENDBRANCH   1  19
BRANCH   2  24
ATOM     24  C   UNL     1      19.744   3.820  48.339  0.00  0.00    +0.000 C 
ATOM     25  O   UNL     1      18.780   4.549  48.517  0.00  0.00    +0.000 OA
ATOM     26  O   UNL     1      20.119   3.495  47.089  0.00  0.00    +0.000 OA
ENDBRANCH   2  24
BRANCH   5  27
ATOM     27  C   UNL     1      23.195   2.523  51.137  0.00  0.00    +0.000 C 
BRANCH  27  28
ATOM     28  C   UNL     1      23.492   1.194  51.782  0.00  0.00    +0.000 C 
ATOM     29  C   UNL     1      24.040   1.008  52.996  0.00  0.00    +0.000 C 
BRANCH  29  30
ATOM     30  C   UNL     1      24.283  -0.356  53.588  0.00  0.00    +0.000 C 
BRANCH  30  31
ATOM     31  C   UNL     1      25.774  -0.680  53.818  0.00  0.00    +0.000 C 
ATOM     32  C   UNL     1      26.556  -0.781  52.506  0.00  0.00    +0.000 C 
ATOM     33  C   UNL     1      26.410   0.389  54.713  0.00  0.00    +0.000 C 
ENDBRANCH  30  31
ENDBRANCH  29  30
ENDBRANCH  27  28
ENDBRANCH   5  27
TORSDOF 8
ENDMDL
MODEL 9
REMARK VINA RESULT:    -6.419      2.956      7.923
REMARK INTER + INTRA:         -12.278
REMARK INTER:                 -10.726
REMARK INTRA:                  -1.552
REMARK UNBOUND:                -2.858
REMARK  Name = 
REMARK  11 active torsions:
REMARK  status: ('A' for Active; 'I' for Inactive)
REMARK    1  A    between atoms: C_1  and  O_2
REMARK    2  A    between atoms: O_2  and  C_3
REMARK    3  A    between atoms: C_6  and  C_7
REMARK    4  A    between atoms: C_8  and  C_9
REMARK    5  A    between atoms: C_12  and  C_13
REMARK    6  A    between atoms: N_23  and  C_24
REMARK    7  A    between atoms: C_24  and  C_25
REMARK    8  A    between atoms: C_26  and  C_27
REMARK    9  A    between atoms: C_27  and  C_28
REMARK   10  A    between atoms: C_28  and  C_29
REMARK   11  A    between atoms: C_28  and  C_30
REMARK                            x       y       z     vdW  Elec       q    Type
REMARK                         _______ _______ _______ _____ _____    ______ ____
ROOT
ATOM      1  C   UNL     1      23.201   3.991  49.840  0.00  0.00    +0.000 C 
ATOM      2  C   UNL     1      23.332   3.137  51.110  0.00  0.00    +0.000 C 
ATOM      3  C   UNL     1      24.476   2.167  50.766  0.00  0.00    +0.000 C 
ATOM      4  C   UNL     1      25.245   2.853  49.625  0.00  0.00    +0.000 C 
ATOM      5  N   UNL     1      24.593   4.146  49.331  0.00  0.00    +0.000 N 
ATOM      6  H   UNL     1      24.571   4.373  48.337  0.00  0.00    +0.000 HD
ENDROOT
BRANCH   3   7
ATOM      7  C   UNL     1      25.366   1.743  51.926  0.00  0.00    +0.000 A 
ATOM      8  C   UNL     1      24.873   0.793  52.855  0.00  0.00    +0.000 A 
ATOM      9  C   UNL     1      25.671   0.298  53.889  0.00  0.00    +0.000 A 
ATOM     10  C   UNL     1      26.965   0.759  53.979  0.00  0.00    +0.000 A 
ATOM     11  C   UNL     1      27.456   1.688  53.098  0.00  0.00    +0.000 A 
ATOM     12  C   UNL     1      26.688   2.205  52.074  0.00  0.00    +0.000 A 
ATOM     13  O   UNL     1      28.760   2.000  53.349  0.00  0.00    +0.000 OA
ATOM     14  C   UNL     1      29.044   1.104  54.446  0.00  0.00    +0.000 C 
ATOM     15  O   UNL     1      27.890   0.366  54.896  0.00  0.00    +0.000 OA
ENDBRANCH   3   7
BRANCH   1  19
ATOM     16  C   UNL     1      21.155   7.833  49.798  0.00  0.00    +0.000 A 
ATOM     17  C   UNL     1      21.614   7.306  51.004  0.00  0.00    +0.000 A 
ATOM     18  C   UNL     1      22.228   6.046  51.048  0.00  0.00    +0.000 A 
ATOM     19  C   UNL     1      22.409   5.290  49.881  0.00  0.00    +0.000 A 
ATOM     20  C   UNL     1      21.906   5.817  48.677  0.00  0.00    +0.000 A 
ATOM     21  C   UNL     1      21.283   7.069  48.639  0.00  0.00    +0.000 A 
BRANCH  16  23
ATOM     22  C   UNL     1      19.337   9.090  48.930  0.00  0.00    +0.000 C 
ATOM     23  O   UNL     1      20.579   9.060  49.626  0.00  0.00    +0.000 OA
ENDBRANCH  16  23
ENDBRANCH   1  19
BRANCH   2  24
ATOM     24  C   UNL     1      22.049   2.377  51.345  0.00  0.00    +0.000 C 
ATOM     25  O   UNL     1      21.197   2.616  52.186  0.00  0.00    +0.000 OA
ATOM     26  O   UNL     1      21.900   1.328  50.516  0.00  0.00    +0.000 OA
ENDBRANCH   2  24
BRANCH   5  27
ATOM     27  C   UNL     1      25.348   5.280  49.890  0.00  0.00    +0.000 C 
BRANCH  27  28
ATOM     28  C   UNL     1      26.052   6.042  48.798  0.00  0.00    +0.000 C 
ATOM     29  C   UNL     1      27.354   6.379  48.780  0.00  0.00    +0.000 C 
BRANCH  29  30
ATOM     30  C   UNL     1      27.995   7.122  47.637  0.00  0.00    +0.000 C 
BRANCH  30  31
ATOM     31  C   UNL     1      29.532   6.994  47.593  0.00  0.00    +0.000 C 
ATOM     32  C   UNL     1      30.227   8.031  48.477  0.00  0.00    +0.000 C 
ATOM     33  C   UNL     1      29.953   5.585  48.028  0.00  0.00    +0.000 C 
ENDBRANCH  30  31
ENDBRANCH  29  30
ENDBRANCH  27  28
ENDBRANCH   5  27
TORSDOF 8
ENDMDL
