MODEL 1
REMARK VINA RESULT:    -8.819      0.000      0.000
REMARK INTER + INTRA:         -10.455
REMARK INTER:                 -10.108
REMARK INTRA:                  -0.347
REMARK UNBOUND:                -0.347
REMARK  Name = 
REMARK  8 active torsions:
REMARK  status: ('A' for Active; 'I' for Inactive)
REMARK    1  A    between atoms: C_1  and  C_2
REMARK    2  A    between atoms: C_2  and  C_3
REMARK    3  A    between atoms: C_3  and  C_4
REMARK    4  A    between atoms: C_16  and  C_17
REMARK    5  A    between atoms: C_16  and  C_18
REMARK    6  A    between atoms: C_22  and  C_23
REMARK    7  A    between atoms: C_24  and  C_25
REMARK    8  A    between atoms: C_26  and  O_27
REMARK                            x       y       z     vdW  Elec       q    Type
REMARK                         _______ _______ _______ _____ _____    ______ ____
ROOT
ATOM      1  C   UNL     1      21.763   1.026  52.888  0.00  0.00    +0.000 A 
ATOM      2  C   UNL     1      21.832   0.468  54.128  0.00  0.00    +0.000 A 
ATOM      3  C   UNL     1      22.326  -0.929  54.027  0.00  0.00    +0.000 A 
ATOM      4  O   UNL     1      21.833  -1.854  54.653  0.00  0.00    +0.000 OA
ATOM      5  O   UNL     1      23.434  -1.057  53.223  0.00  0.00    +0.000 OA
ATOM      6  C   UNL     1      23.921   0.127  52.643  0.00  0.00    +0.000 A 
ATOM      7  C   UNL     1      25.264   0.385  52.776  0.00  0.00    +0.000 A 
ATOM      8  C   UNL     1      25.814   1.369  51.963  0.00  0.00    +0.000 A 
ATOM      9  C   UNL     1      24.988   2.108  51.088  0.00  0.00    +0.000 A 
ATOM     10  C   UNL     1      23.587   2.049  51.255  0.00  0.00    +0.000 A 
ATOM     11  C   UNL     1      23.048   1.096  52.145  0.00  0.00    +0.000 A 
ATOM     12  O   UNL     1      22.757   2.896  50.553  0.00  0.00    +0.000 OA
ATOM     13  C   UNL     1      23.340   3.981  49.770  0.00  0.00    +0.000 C 
ATOM     14  C   UNL     1      22.585   4.080  48.433  0.00  0.00    +0.000 C 
ATOM     15  C   UNL     1      23.141   5.285  50.551  0.00  0.00    +0.000 C 
ATOM     16  C   UNL     1      24.802   3.852  49.457  0.00  0.00    +0.000 C 
ATOM     17  C   UNL     1      25.594   2.973  50.091  0.00  0.00    +0.000 C 
ATOM     18  O   UNL     1      27.160   1.625  51.978  0.00  0.00    +0.000 OA
ATOM     19  C   UNL     1      27.888   1.244  53.164  0.00  0.00    +0.000 C 
ATOM     20  C   UNL     1      27.777   2.365  54.206  0.00  0.00    +0.000 C 
ATOM     21  C   UNL     1      27.487  -0.133  53.716  0.00  0.00    +0.000 C 
ATOM     22  C   UNL     1      27.828  -1.285  52.759  0.00  0.00    +0.000 C 
ATOM     23  C   UNL     1      26.003  -0.110  53.995  0.00  0.00    +0.000 C 
ENDROOT
BRANCH  23  24
ATOM     24  O   UNL     1      25.607  -1.364  54.537  0.00  0.00    +0.000 OA
ATOM     25  H   UNL     1      25.711  -1.346  55.501  0.00  0.00    +0.000 HD
ENDBRANCH  23  24
BRANCH   1  26
ATOM     26  C   UNL     1      20.521   1.805  52.644  0.00  0.00    +0.000 C 
BRANCH  26  28
ATOM     27  C   UNL     1      18.950   0.016  51.880  0.00  0.00    +0.000 C 
ATOM     28  C   UNL     1      19.738   1.249  51.457  0.00  0.00    +0.000 C 
ENDBRANCH  26  28
ENDBRANCH   1  26
TORSDOF 3
ENDMDL
MODEL 2
REMARK VINA RESULT:    -8.258      1.838      5.363
REMARK INTER + INTRA:          -9.811
REMARK INTER:                  -9.508
REMARK INTRA:                  -0.303
REMARK UNBOUND:                -0.347
REMARK  Name = 
REMARK  8 active torsions:
REMARK  status: ('A' for Active; 'I' for Inactive)
REMARK    1  A    between atoms: C_1  and  C_2
REMARK    2  A    between atoms: C_2  and  C_3
REMARK    3  A    between atoms: C_3  and  C_4
REMARK    4  A    between atoms: C_16  and  C_17
REMARK    5  A    between atoms: C_16  and  C_18
REMARK    6  A    between atoms: C_22  and  C_23
REMARK    7  A    between atoms: C_24  and  C_25
REMARK    8  A    between atoms: C_26  and  O_27
REMARK                            x       y       z     vdW  Elec       q    Type
REMARK                         _______ _______ _______ _____ _____    ______ ____
ROOT
ATOM      1  C   UNL     1      21.693  -0.050  52.668  0.00  0.00    +0.000 A 
ATOM      2  C   UNL     1      20.656   0.043  51.790  0.00  0.00    +0.000 A 
ATOM      3  C   UNL     1      19.742   1.139  52.201  0.00  0.00    +0.000 A 
ATOM      4  O   UNL     1      18.526   1.028  52.191  0.00  0.00    +0.000 OA
ATOM      5  O   UNL     1      20.400   2.305  52.514  0.00  0.00    +0.000 OA
ATOM      6  C   UNL     1      21.799   2.283  52.391  0.00  0.00    +0.000 A 
ATOM      7  C   UNL     1      22.384   3.301  51.677  0.00  0.00    +0.000 A 
ATOM      8  C   UNL     1      23.758   3.468  51.802  0.00  0.00    +0.000 A 
ATOM      9  C   UNL     1      24.512   2.570  52.588  0.00  0.00    +0.000 A 
ATOM     10  C   UNL     1      23.921   1.353  52.996  0.00  0.00    +0.000 A 
ATOM     11  C   UNL     1      22.538   1.167  52.790  0.00  0.00    +0.000 A 
ATOM     12  O   UNL     1      24.676   0.369  53.597  0.00  0.00    +0.000 OA
ATOM     13  C   UNL     1      26.128   0.512  53.648  0.00  0.00    +0.000 C 
ATOM     14  C   UNL     1      26.617   0.058  55.034  0.00  0.00    +0.000 C 
ATOM     15  C   UNL     1      26.729  -0.410  52.581  0.00  0.00    +0.000 C 
ATOM     16  C   UNL     1      26.659   1.896  53.410  0.00  0.00    +0.000 C 
ATOM     17  C   UNL     1      25.899   2.874  52.893  0.00  0.00    +0.000 C 
ATOM     18  O   UNL     1      24.400   4.512  51.189  0.00  0.00    +0.000 OA
ATOM     19  C   UNL     1      23.749   5.101  50.044  0.00  0.00    +0.000 C 
ATOM     20  C   UNL     1      24.104   4.292  48.790  0.00  0.00    +0.000 C 
ATOM     21  C   UNL     1      22.235   5.294  50.229  0.00  0.00    +0.000 C 
ATOM     22  C   UNL     1      21.890   6.300  51.336  0.00  0.00    +0.000 C 
ATOM     23  C   UNL     1      21.629   3.947  50.543  0.00  0.00    +0.000 C 
ENDROOT
BRANCH  23  24
ATOM     24  O   UNL     1      20.220   4.088  50.688  0.00  0.00    +0.000 OA
ATOM     25  H   UNL     1      20.031   4.801  51.318  0.00  0.00    +0.000 HD
ENDBRANCH  23  24
BRANCH   1  26
ATOM     26  C   UNL     1      22.033  -1.443  53.059  0.00  0.00    +0.000 C 
BRANCH  26  28
ATOM     27  C   UNL     1      22.806  -1.483  55.437  0.00  0.00    +0.000 C 
ATOM     28  C   UNL     1      21.628  -1.731  54.503  0.00  0.00    +0.000 C 
ENDBRANCH  26  28
ENDBRANCH   1  26
TORSDOF 3
ENDMDL
MODEL 3
REMARK VINA RESULT:    -8.023      1.011      1.171
REMARK INTER + INTRA:          -9.542
REMARK INTER:                  -9.171
REMARK INTRA:                  -0.371
REMARK UNBOUND:                -0.347
REMARK  Name = 
REMARK  8 active torsions:
REMARK  status: ('A' for Active; 'I' for Inactive)
REMARK    1  A    between atoms: C_1  and  C_2
REMARK    2  A    between atoms: C_2  and  C_3
REMARK    3  A    between atoms: C_3  and  C_4
REMARK    4  A    between atoms: C_16  and  C_17
REMARK    5  A    between atoms: C_16  and  C_18
REMARK    6  A    between atoms: C_22  and  C_23
REMARK    7  A    between atoms: C_24  and  C_25
REMARK    8  A    between atoms: C_26  and  O_27
REMARK                            x       y       z     vdW  Elec       q    Type
REMARK                         _______ _______ _______ _____ _____    ______ ____
ROOT
ATOM      1  C   UNL     1      21.278   1.988  52.418  0.00  0.00    +0.000 A 
ATOM      2  C   UNL     1      21.204   1.389  53.638  0.00  0.00    +0.000 A 
ATOM      3  C   UNL     1      21.457  -0.067  53.503  0.00  0.00    +0.000 A 
ATOM      4  O   UNL     1      20.791  -0.913  54.080  0.00  0.00    +0.000 OA
ATOM      5  O   UNL     1      22.558  -0.358  52.731  0.00  0.00    +0.000 OA
ATOM      6  C   UNL     1      23.261   0.741  52.211  0.00  0.00    +0.000 A 
ATOM      7  C   UNL     1      24.622   0.762  52.397  0.00  0.00    +0.000 A 
ATOM      8  C   UNL     1      25.361   1.662  51.638  0.00  0.00    +0.000 A 
ATOM      9  C   UNL     1      24.707   2.557  50.764  0.00  0.00    +0.000 A 
ATOM     10  C   UNL     1      23.310   2.733  50.883  0.00  0.00    +0.000 A 
ATOM     11  C   UNL     1      22.584   1.860  51.720  0.00  0.00    +0.000 A 
ATOM     12  O   UNL     1      22.664   3.730  50.185  0.00  0.00    +0.000 OA
ATOM     13  C   UNL     1      23.452   4.722  49.460  0.00  0.00    +0.000 C 
ATOM     14  C   UNL     1      22.776   4.988  48.104  0.00  0.00    +0.000 C 
ATOM     15  C   UNL     1      23.448   6.017  50.282  0.00  0.00    +0.000 C 
ATOM     16  C   UNL     1      24.882   4.354  49.191  0.00  0.00    +0.000 C 
ATOM     17  C   UNL     1      25.488   3.335  49.818  0.00  0.00    +0.000 C 
ATOM     18  O   UNL     1      26.730   1.683  51.707  0.00  0.00    +0.000 OA
ATOM     19  C   UNL     1      27.336   1.148  52.901  0.00  0.00    +0.000 C 
ATOM     20  C   UNL     1      27.378   2.240  53.979  0.00  0.00    +0.000 C 
ATOM     21  C   UNL     1      26.686  -0.156  53.390  0.00  0.00    +0.000 C 
ATOM     22  C   UNL     1      26.863  -1.320  52.404  0.00  0.00    +0.000 C 
ATOM     23  C   UNL     1      25.218   0.112  53.621  0.00  0.00    +0.000 C 
ENDROOT
BRANCH  23  24
ATOM     24  O   UNL     1      24.595  -1.071  54.105  0.00  0.00    +0.000 OA
ATOM     25  H   UNL     1      23.633  -0.994  54.005  0.00  0.00    +0.000 HD
ENDBRANCH  23  24
BRANCH   1  26
ATOM     26  C   UNL     1      20.197   2.975  52.161  0.00  0.00    +0.000 C 
BRANCH  26  28
ATOM     27  C   UNL     1      19.288   2.879  49.833  0.00  0.00    +0.000 C 
ATOM     28  C   UNL     1      19.109   2.389  51.265  0.00  0.00    +0.000 C 
ENDBRANCH  26  28
ENDBRANCH   1  26
TORSDOF 3
ENDMDL
MODEL 4
REMARK VINA RESULT:    -7.677      1.749      4.777
REMARK INTER + INTRA:          -9.146
REMARK INTER:                  -8.833
REMARK INTRA:                  -0.313
REMARK UNBOUND:                -0.347
REMARK  Name = 
REMARK  8 active torsions:
REMARK  status: ('A' for Active; 'I' for Inactive)
REMARK    1  A    between atoms: C_1  and  C_2
REMARK    2  A    between atoms: C_2  and  C_3
REMARK    3  A    between atoms: C_3  and  C_4
REMARK    4  A    between atoms: C_16  and  C_17
REMARK    5  A    between atoms: C_16  and  C_18
REMARK    6  A    between atoms: C_22  and  C_23
REMARK    7  A    between atoms: C_24  and  C_25
REMARK    8  A    between atoms: C_26  and  O_27
REMARK                            x       y       z     vdW  Elec       q    Type
REMARK                         _______ _______ _______ _____ _____    ______ ____
ROOT
ATOM      1  C   UNL     1      23.270   2.419  51.160  0.00  0.00    +0.000 A 
ATOM      2  C   UNL     1      24.180   2.827  50.232  0.00  0.00    +0.000 A 
ATOM      3  C   UNL     1      25.063   3.869  50.813  0.00  0.00    +0.000 A 
ATOM      4  O   UNL     1      25.378   4.883  50.211  0.00  0.00    +0.000 OA
ATOM      5  O   UNL     1      25.546   3.539  52.058  0.00  0.00    +0.000 OA
ATOM      6  C   UNL     1      25.148   2.293  52.570  0.00  0.00    +0.000 A 
ATOM      7  C   UNL     1      26.134   1.466  53.050  0.00  0.00    +0.000 A 
ATOM      8  C   UNL     1      25.744   0.383  53.829  0.00  0.00    +0.000 A 
ATOM      9  C   UNL     1      24.373   0.126  54.048  0.00  0.00    +0.000 A 
ATOM     10  C   UNL     1      23.415   0.785  53.245  0.00  0.00    +0.000 A 
ATOM     11  C   UNL     1      23.841   1.831  52.399  0.00  0.00    +0.000 A 
ATOM     12  O   UNL     1      22.086   0.423  53.294  0.00  0.00    +0.000 OA
ATOM     13  C   UNL     1      21.695  -0.766  54.045  0.00  0.00    +0.000 C 
ATOM     14  C   UNL     1      20.399  -0.456  54.813  0.00  0.00    +0.000 C 
ATOM     15  C   UNL     1      21.422  -1.889  53.038  0.00  0.00    +0.000 C 
ATOM     16  C   UNL     1      22.701  -1.274  55.037  0.00  0.00    +0.000 C 
ATOM     17  C   UNL     1      23.979  -0.864  55.034  0.00  0.00    +0.000 C 
ATOM     18  O   UNL     1      26.674  -0.437  54.413  0.00  0.00    +0.000 OA
ATOM     19  C   UNL     1      27.985  -0.473  53.814  0.00  0.00    +0.000 C 
ATOM     20  C   UNL     1      27.984  -1.484  52.659  0.00  0.00    +0.000 C 
ATOM     21  C   UNL     1      28.513   0.910  53.402  0.00  0.00    +0.000 C 
ATOM     22  C   UNL     1      28.745   1.843  54.600  0.00  0.00    +0.000 C 
ATOM     23  C   UNL     1      27.517   1.525  52.449  0.00  0.00    +0.000 C 
ENDROOT
BRANCH  23  24
ATOM     24  O   UNL     1      27.994   2.797  52.026  0.00  0.00    +0.000 OA
ATOM     25  H   UNL     1      28.936   2.877  52.245  0.00  0.00    +0.000 HD
ENDBRANCH  23  24
BRANCH   1  26
ATOM     26  C   UNL     1      21.889   2.275  50.631  0.00  0.00    +0.000 C 
BRANCH  26  28
ATOM     27  C   UNL     1      21.543   1.215  48.393  0.00  0.00    +0.000 C 
ATOM     28  C   UNL     1      21.712   0.956  49.884  0.00  0.00    +0.000 C 
ENDBRANCH  26  28
ENDBRANCH   1  26
TORSDOF 3
ENDMDL
MODEL 5
REMARK VINA RESULT:    -7.314      2.186      4.660
REMARK INTER + INTRA:          -8.730
REMARK INTER:                  -8.494
REMARK INTRA:                  -0.236
REMARK UNBOUND:                -0.347
REMARK  Name = 
REMARK  8 active torsions:
REMARK  status: ('A' for Active; 'I' for Inactive)
REMARK    1  A    between atoms: C_1  and  C_2
REMARK    2  A    between atoms: C_2  and  C_3
REMARK    3  A    between atoms: C_3  and  C_4
REMARK    4  A    between atoms: C_16  and  C_17
REMARK    5  A    between atoms: C_16  and  C_18
REMARK    6  A    between atoms: C_22  and  C_23
REMARK    7  A    between atoms: C_24  and  C_25
REMARK    8  A    between atoms: C_26  and  O_27
REMARK                            x       y       z     vdW  Elec       q    Type
REMARK                         _______ _______ _______ _____ _____    ______ ____
ROOT
ATOM      1  C   UNL     1      22.428   1.017  52.453  0.00  0.00    +0.000 A 
ATOM      2  C   UNL     1      23.509   1.146  53.270  0.00  0.00    +0.000 A 
ATOM      3  C   UNL     1      24.752   0.837  52.518  0.00  0.00    +0.000 A 
ATOM      4  O   UNL     1      25.652   0.150  52.976  0.00  0.00    +0.000 OA
ATOM      5  O   UNL     1      24.816   1.462  51.295  0.00  0.00    +0.000 OA
ATOM      6  C   UNL     1      23.728   2.285  50.959  0.00  0.00    +0.000 A 
ATOM      7  C   UNL     1      24.012   3.556  50.522  0.00  0.00    +0.000 A 
ATOM      8  C   UNL     1      22.991   4.266  49.901  0.00  0.00    +0.000 A 
ATOM      9  C   UNL     1      21.700   3.705  49.796  0.00  0.00    +0.000 A 
ATOM     10  C   UNL     1      21.382   2.567  50.571  0.00  0.00    +0.000 A 
ATOM     11  C   UNL     1      22.419   1.903  51.260  0.00  0.00    +0.000 A 
ATOM     12  O   UNL     1      20.086   2.104  50.644  0.00  0.00    +0.000 OA
ATOM     13  C   UNL     1      19.008   2.900  50.064  0.00  0.00    +0.000 C 
ATOM     14  C   UNL     1      18.034   1.952  49.343  0.00  0.00    +0.000 C 
ATOM     15  C   UNL     1      18.268   3.597  51.212  0.00  0.00    +0.000 C 
ATOM     16  C   UNL     1      19.428   3.954  49.081  0.00  0.00    +0.000 C 
ATOM     17  C   UNL     1      20.704   4.351  48.959  0.00  0.00    +0.000 C 
ATOM     18  O   UNL     1      23.221   5.506  49.364  0.00  0.00    +0.000 OA
ATOM     19  C   UNL     1      24.342   6.250  49.884  0.00  0.00    +0.000 C 
ATOM     20  C   UNL     1      23.905   7.002  51.149  0.00  0.00    +0.000 C 
ATOM     21  C   UNL     1      25.602   5.395  50.097  0.00  0.00    +0.000 C 
ATOM     22  C   UNL     1      26.178   4.842  48.786  0.00  0.00    +0.000 C 
ATOM     23  C   UNL     1      25.245   4.261  51.028  0.00  0.00    +0.000 C 
ENDROOT
BRANCH  23  24
ATOM     24  O   UNL     1      26.402   3.469  51.269  0.00  0.00    +0.000 OA
ATOM     25  H   UNL     1      26.283   2.594  50.869  0.00  0.00    +0.000 HD
ENDBRANCH  23  24
BRANCH   1  26
ATOM     26  C   UNL     1      21.279   0.309  53.076  0.00  0.00    +0.000 C 
BRANCH  26  28
ATOM     27  C   UNL     1      21.613  -1.778  54.413  0.00  0.00    +0.000 C 
ATOM     28  C   UNL     1      21.649  -0.255  54.445  0.00  0.00    +0.000 C 
ENDBRANCH  26  28
ENDBRANCH   1  26
TORSDOF 3
ENDMDL
MODEL 6
REMARK VINA RESULT:    -7.136      2.148      3.847
REMARK INTER + INTRA:          -8.526
REMARK INTER:                  -8.290
REMARK INTRA:                  -0.236
REMARK UNBOUND:                -0.347
REMARK  Name = 
REMARK  8 active torsions:
REMARK  status: ('A' for Active; 'I' for Inactive)
REMARK    1  A    between atoms: C_1  and  C_2
REMARK    2  A    between atoms: C_2  and  C_3
REMARK    3  A    between atoms: C_3  and  C_4
REMARK    4  A    between atoms: C_16  and  C_17
REMARK    5  A    between atoms: C_16  and  C_18
REMARK    6  A    between atoms: C_22  and  C_23
REMARK    7  A    between atoms: C_24  and  C_25
REMARK    8  A    between atoms: C_26  and  O_27
REMARK                            x       y       z     vdW  Elec       q    Type
REMARK                         _______ _______ _______ _____ _____    ______ ____
ROOT
ATOM      1  C   UNL     1      19.714  -0.281  52.832  0.00  0.00    +0.000 A 
ATOM      2  C   UNL     1      20.375  -0.558  53.989  0.00  0.00    +0.000 A 
ATOM      3  C   UNL     1      21.628  -1.297  53.691  0.00  0.00    +0.000 A 
ATOM      4  O   UNL     1      21.997  -2.266  54.336  0.00  0.00    +0.000 OA
ATOM      5  O   UNL     1      22.362  -0.733  52.674  0.00  0.00    +0.000 OA
ATOM      6  C   UNL     1      21.830   0.431  52.094  0.00  0.00    +0.000 A 
ATOM      7  C   UNL     1      22.669   1.513  51.973  0.00  0.00    +0.000 A 
ATOM      8  C   UNL     1      22.266   2.549  51.139  0.00  0.00    +0.000 A 
ATOM      9  C   UNL     1      21.007   2.498  50.503  0.00  0.00    +0.000 A 
ATOM     10  C   UNL     1      20.054   1.552  50.944  0.00  0.00    +0.000 A 
ATOM     11  C   UNL     1      20.460   0.552  51.853  0.00  0.00    +0.000 A 
ATOM     12  O   UNL     1      18.756   1.593  50.484  0.00  0.00    +0.000 OA
ATOM     13  C   UNL     1      18.317   2.729  49.680  0.00  0.00    +0.000 C 
ATOM     14  C   UNL     1      17.436   2.205  48.532  0.00  0.00    +0.000 C 
ATOM     15  C   UNL     1      17.475   3.644  50.577  0.00  0.00    +0.000 C 
ATOM     16  C   UNL     1      19.408   3.561  49.071  0.00  0.00    +0.000 C 
ATOM     17  C   UNL     1      20.686   3.466  49.469  0.00  0.00    +0.000 C 
ATOM     18  O   UNL     1      23.085   3.622  50.902  0.00  0.00    +0.000 OA
ATOM     19  C   UNL     1      24.101   3.903  51.887  0.00  0.00    +0.000 C 
ATOM     20  C   UNL     1      23.493   4.758  53.008  0.00  0.00    +0.000 C 
ATOM     21  C   UNL     1      24.817   2.647  52.409  0.00  0.00    +0.000 C 
ATOM     22  C   UNL     1      25.629   1.926  51.323  0.00  0.00    +0.000 C 
ATOM     23  C   UNL     1      23.773   1.718  52.980  0.00  0.00    +0.000 C 
ENDROOT
BRANCH  23  24
ATOM     24  O   UNL     1      24.411   0.557  53.500  0.00  0.00    +0.000 OA
ATOM     25  H   UNL     1      24.984   0.172  52.820  0.00  0.00    +0.000 HD
ENDBRANCH  23  24
BRANCH   1  26
ATOM     26  C   UNL     1      18.249  -0.523  52.898  0.00  0.00    +0.000 C 
BRANCH  26  28
ATOM     27  C   UNL     1      16.908  -2.634  52.941  0.00  0.00    +0.000 C 
ATOM     28  C   UNL     1      17.929  -1.788  53.691  0.00  0.00    +0.000 C 
ENDBRANCH  26  28
ENDBRANCH   1  26
TORSDOF 3
ENDMDL
MODEL 7
REMARK VINA RESULT:    -7.045      2.188      6.423
REMARK INTER + INTRA:          -8.421
REMARK INTER:                  -8.182
REMARK INTRA:                  -0.240
REMARK UNBOUND:                -0.347
REMARK  Name = 
REMARK  8 active torsions:
REMARK  status: ('A' for Active; 'I' for Inactive)
REMARK    1  A    between atoms: C_1  and  C_2
REMARK    2  A    between atoms: C_2  and  C_3
REMARK    3  A    between atoms: C_3  and  C_4
REMARK    4  A    between atoms: C_16  and  C_17
REMARK    5  A    between atoms: C_16  and  C_18
REMARK    6  A    between atoms: C_22  and  C_23
REMARK    7  A    between atoms: C_24  and  C_25
REMARK    8  A    between atoms: C_26  and  O_27
REMARK                            x       y       z     vdW  Elec       q    Type
REMARK                         _______ _______ _______ _____ _____    ______ ____
ROOT
ATOM      1  C   UNL     1      22.395   0.473  52.822  0.00  0.00    +0.000 A 
ATOM      2  C   UNL     1      22.272  -0.882  52.864  0.00  0.00    +0.000 A 
ATOM      3  C   UNL     1      21.389  -1.275  53.992  0.00  0.00    +0.000 A 
ATOM      4  O   UNL     1      21.645  -2.204  54.742  0.00  0.00    +0.000 OA
ATOM      5  O   UNL     1      20.228  -0.542  54.055  0.00  0.00    +0.000 OA
ATOM      6  C   UNL     1      20.056   0.436  53.060  0.00  0.00    +0.000 A 
ATOM      7  C   UNL     1      18.861   0.439  52.382  0.00  0.00    +0.000 A 
ATOM      8  C   UNL     1      18.552   1.564  51.627  0.00  0.00    +0.000 A 
ATOM      9  C   UNL     1      19.479   2.624  51.524  0.00  0.00    +0.000 A 
ATOM     10  C   UNL     1      20.813   2.411  51.937  0.00  0.00    +0.000 A 
ATOM     11  C   UNL     1      21.127   1.225  52.634  0.00  0.00    +0.000 A 
ATOM     12  O   UNL     1      21.790   3.348  51.679  0.00  0.00    +0.000 OA
ATOM     13  C   UNL     1      21.481   4.483  50.814  0.00  0.00    +0.000 C 
ATOM     14  C   UNL     1      22.117   5.746  51.420  0.00  0.00    +0.000 C 
ATOM     15  C   UNL     1      22.112   4.215  49.443  0.00  0.00    +0.000 C 
ATOM     16  C   UNL     1      20.023   4.766  50.601  0.00  0.00    +0.000 C 
ATOM     17  C   UNL     1      19.067   3.881  50.923  0.00  0.00    +0.000 C 
ATOM     18  O   UNL     1      17.343   1.677  50.992  0.00  0.00    +0.000 OA
ATOM     19  C   UNL     1      16.639   0.453  50.698  0.00  0.00    +0.000 C 
ATOM     20  C   UNL     1      17.156  -0.121  49.372  0.00  0.00    +0.000 C 
ATOM     21  C   UNL     1      16.671  -0.567  51.849  0.00  0.00    +0.000 C 
ATOM     22  C   UNL     1      15.933  -0.077  53.103  0.00  0.00    +0.000 C 
ATOM     23  C   UNL     1      18.116  -0.857  52.175  0.00  0.00    +0.000 C 
ENDROOT
BRANCH  23  24
ATOM     24  O   UNL     1      18.178  -1.822  53.218  0.00  0.00    +0.000 OA
ATOM     25  H   UNL     1      17.307  -1.901  53.637  0.00  0.00    +0.000 HD
ENDBRANCH  23  24
BRANCH   1  26
ATOM     26  C   UNL     1      23.783   0.947  52.587  0.00  0.00    +0.000 C 
BRANCH  26  28
ATOM     27  C   UNL     1      26.084  -0.030  52.500  0.00  0.00    +0.000 C 
ATOM     28  C   UNL     1      24.802   0.074  53.316  0.00  0.00    +0.000 C 
ENDBRANCH  26  28
ENDBRANCH   1  26
TORSDOF 3
ENDMDL
MODEL 8
REMARK VINA RESULT:    -7.036      1.464      6.249
REMARK INTER + INTRA:          -8.412
REMARK INTER:                  -8.141
REMARK INTRA:                  -0.270
REMARK UNBOUND:                -0.347
REMARK  Name = 
REMARK  8 active torsions:
REMARK  status: ('A' for Active; 'I' for Inactive)
REMARK    1  A    between atoms: C_1  and  C_2
REMARK    2  A    between atoms: C_2  and  C_3
REMARK    3  A    between atoms: C_3  and  C_4
REMARK    4  A    between atoms: C_16  and  C_17
REMARK    5  A    between atoms: C_16  and  C_18
REMARK    6  A    between atoms: C_22  and  C_23
REMARK    7  A    between atoms: C_24  and  C_25
REMARK    8  A    between atoms: C_26  and  O_27
REMARK                            x       y       z     vdW  Elec       q    Type
REMARK                         _______ _______ _______ _____ _____    ______ ____
ROOT
ATOM      1  C   UNL     1      24.273   3.441  50.688  0.00  0.00    +0.000 A 
ATOM      2  C   UNL     1      23.261   4.344  50.567  0.00  0.00    +0.000 A 
ATOM      3  C   UNL     1      22.242   3.837  49.614  0.00  0.00    +0.000 A 
ATOM      4  O   UNL     1      21.726   4.539  48.758  0.00  0.00    +0.000 OA
ATOM      5  O   UNL     1      21.885   2.529  49.844  0.00  0.00    +0.000 OA
ATOM      6  C   UNL     1      22.518   1.893  50.925  0.00  0.00    +0.000 A 
ATOM      7  C   UNL     1      21.714   1.240  51.829  0.00  0.00    +0.000 A 
ATOM      8  C   UNL     1      22.325   0.361  52.715  0.00  0.00    +0.000 A 
ATOM      9  C   UNL     1      23.728   0.211  52.710  0.00  0.00    +0.000 A 
ATOM     10  C   UNL     1      24.517   1.159  52.021  0.00  0.00    +0.000 A 
ATOM     11  C   UNL     1      23.875   2.098  51.185  0.00  0.00    +0.000 A 
ATOM     12  O   UNL     1      25.889   1.161  52.148  0.00  0.00    +0.000 OA
ATOM     13  C   UNL     1      26.516   0.295  53.142  0.00  0.00    +0.000 C 
ATOM     14  C   UNL     1      27.777  -0.330  52.520  0.00  0.00    +0.000 C 
ATOM     15  C   UNL     1      26.929   1.168  54.333  0.00  0.00    +0.000 C 
ATOM     16  C   UNL     1      25.665  -0.824  53.667  0.00  0.00    +0.000 C 
ATOM     17  C   UNL     1      24.337  -0.862  53.477  0.00  0.00    +0.000 C 
ATOM     18  O   UNL     1      21.581  -0.389  53.588  0.00  0.00    +0.000 OA
ATOM     19  C   UNL     1      20.267   0.103  53.922  0.00  0.00    +0.000 C 
ATOM     20  C   UNL     1      20.384   1.117  55.068  0.00  0.00    +0.000 C 
ATOM     21  C   UNL     1      19.488   0.648  52.714  0.00  0.00    +0.000 C 
ATOM     22  C   UNL     1      19.159  -0.435  51.676  0.00  0.00    +0.000 C 
ATOM     23  C   UNL     1      20.314   1.742  52.081  0.00  0.00    +0.000 C 
ENDROOT
BRANCH  23  24
ATOM     24  O   UNL     1      19.604   2.288  50.976  0.00  0.00    +0.000 OA
ATOM     25  H   UNL     1      18.688   1.971  50.993  0.00  0.00    +0.000 HD
ENDBRANCH  23  24
BRANCH   1  26
ATOM     26  C   UNL     1      25.630   4.046  50.674  0.00  0.00    +0.000 C 
BRANCH  26  28
ATOM     27  C   UNL     1      27.263   4.589  48.859  0.00  0.00    +0.000 C 
ATOM     28  C   UNL     1      26.483   3.474  49.544  0.00  0.00    +0.000 C 
ENDBRANCH  26  28
ENDBRANCH   1  26
TORSDOF 3
ENDMDL
MODEL 9
REMARK VINA RESULT:    -6.997      2.425      6.234
REMARK INTER + INTRA:          -8.367
REMARK INTER:                  -8.121
REMARK INTRA:                  -0.246
REMARK UNBOUND:                -0.347
REMARK  Name = 
REMARK  8 active torsions:
REMARK  status: ('A' for Active; 'I' for Inactive)
REMARK    1  A    between atoms: C_1  and  C_2
REMARK    2  A    between atoms: C_2  and  C_3
REMARK    3  A    between atoms: C_3  and  C_4
REMARK    4  A    between atoms: C_16  and  C_17
REMARK    5  A    between atoms: C_16  and  C_18
REMARK    6  A    between atoms: C_22  and  C_23
REMARK    7  A    between atoms: C_24  and  C_25
REMARK    8  A    between atoms: C_26  and  O_27
REMARK                            x       y       z     vdW  Elec       q    Type
REMARK                         _______ _______ _______ _____ _____    ______ ____
ROOT
ATOM      1  C   UNL     1      22.995   1.767  52.455  0.00  0.00    +0.000 A 
ATOM      2  C   UNL     1      22.466   0.514  52.401  0.00  0.00    +0.000 A 
ATOM      3  C   UNL     1      21.358   0.389  53.382  0.00  0.00    +0.000 A 
ATOM      4  O   UNL     1      21.216  -0.586  54.103  0.00  0.00    +0.000 OA
ATOM      5  O   UNL     1      20.474   1.441  53.340  0.00  0.00    +0.000 OA
ATOM      6  C   UNL     1      20.743   2.442  52.391  0.00  0.00    +0.000 A 
ATOM      7  C   UNL     1      19.710   2.822  51.567  0.00  0.00    +0.000 A 
ATOM      8  C   UNL     1      19.862   4.000  50.847  0.00  0.00    +0.000 A 
ATOM      9  C   UNL     1      21.069   4.728  50.925  0.00  0.00    +0.000 A 
ATOM     10  C   UNL     1      22.206   4.111  51.492  0.00  0.00    +0.000 A 
ATOM     11  C   UNL     1      22.049   2.873  52.152  0.00  0.00    +0.000 A 
ATOM     12  O   UNL     1      23.445   4.710  51.415  0.00  0.00    +0.000 OA
ATOM     13  C   UNL     1      23.614   5.899  50.587  0.00  0.00    +0.000 C 
ATOM     14  C   UNL     1      24.509   6.898  51.342  0.00  0.00    +0.000 C 
ATOM     15  C   UNL     1      24.321   5.476  49.294  0.00  0.00    +0.000 C 
ATOM     16  C   UNL     1      22.353   6.618  50.206  0.00  0.00    +0.000 C 
ATOM     17  C   UNL     1      21.141   6.061  50.351  0.00  0.00    +0.000 C 
ATOM     18  O   UNL     1      18.843   4.488  50.070  0.00  0.00    +0.000 OA
ATOM     19  C   UNL     1      17.852   3.542  49.618  0.00  0.00    +0.000 C 
ATOM     20  C   UNL     1      18.352   2.861  48.337  0.00  0.00    +0.000 C 
ATOM     21  C   UNL     1      17.416   2.542  50.701  0.00  0.00    +0.000 C 
ATOM     22  C   UNL     1      16.692   3.211  51.878  0.00  0.00    +0.000 C 
ATOM     23  C   UNL     1      18.648   1.819  51.191  0.00  0.00    +0.000 C 
ENDROOT
BRANCH  23  24
ATOM     24  O   UNL     1      18.271   0.862  52.175  0.00  0.00    +0.000 OA
ATOM     25  H   UNL     1      17.367   1.046  52.474  0.00  0.00    +0.000 HD
ENDBRANCH  23  24
BRANCH   1  26
ATOM     26  C   UNL     1      24.480   1.800  52.427  0.00  0.00    +0.000 C 
BRANCH  26  28
ATOM     27  C   UNL     1      26.376   0.209  52.067  0.00  0.00    +0.000 C 
ATOM     28  C   UNL     1      25.074   0.450  52.821  0.00  0.00    +0.000 C 
ENDBRANCH  26  28
ENDBRANCH   1  26
TORSDOF 3
ENDMDL
