MODEL 1
REMARK VINA RESULT:    -8.583      0.000      0.000
REMARK INTER + INTRA:         -12.593
REMARK INTER:                 -11.593
REMARK INTRA:                  -1.000
REMARK UNBOUND:                -1.000
REMARK  Name = 
REMARK  12 active torsions:
REMARK  status: ('A' for Active; 'I' for Inactive)
REMARK    1  A    between atoms: C_1  and  C_2
REMARK    2  A    between atoms: C_2  and  C_3
REMARK    3  A    between atoms: C_3  and  C_4
REMARK    4  A    between atoms: C_10  and  C_11
REMARK    5  A    between atoms: C_11  and  C_13
REMARK    6  A    between atoms: C_13  and  C_14
REMARK    7  A    between atoms: C_13  and  C_15
REMARK    8  A    between atoms: C_15  and  C_16
REMARK    9  A    between atoms: C_15  and  O_17
REMARK   10  A    between atoms: C_18  and  O_19
REMARK   11  A    between atoms: C_24  and  C_25
REMARK   12  A    between atoms: C_24  and  C_26
REMARK                            x       y       z     vdW  Elec       q    Type
REMARK                         _______ _______ _______ _____ _____    ______ ____
ROOT
ATOM      1  C   UNL     1      21.853   1.881  52.449  0.00  0.00    +0.000 A 
ATOM      2  C   UNL     1      21.663   0.779  53.199  0.00  0.00    +0.000 A 
ATOM      3  C   UNL     1      22.558  -0.375  53.142  0.00  0.00    +0.000 A 
ATOM      4  O   UNL     1      22.187  -1.500  53.440  0.00  0.00    +0.000 OA
ATOM      5  O   UNL     1      23.849  -0.056  52.818  0.00  0.00    +0.000 OA
ATOM      6  C   UNL     1      24.170   1.223  52.313  0.00  0.00    +0.000 A 
ATOM      7  C   UNL     1      25.518   1.592  52.344  0.00  0.00    +0.000 A 
ATOM      8  C   UNL     1      25.919   2.621  51.509  0.00  0.00    +0.000 A 
ATOM      9  C   UNL     1      24.973   3.270  50.672  0.00  0.00    +0.000 A 
ATOM     10  C   UNL     1      23.574   3.030  50.860  0.00  0.00    +0.000 A 
ATOM     11  C   UNL     1      23.165   2.038  51.772  0.00  0.00    +0.000 A 
ATOM     12  O   UNL     1      22.627   3.745  50.164  0.00  0.00    +0.000 OA
ATOM     13  C   UNL     1      23.010   4.439  48.944  0.00  0.00    +0.000 C 
ATOM     14  C   UNL     1      22.484   3.625  47.760  0.00  0.00    +0.000 C 
ATOM     15  C   UNL     1      22.348   5.813  48.957  0.00  0.00    +0.000 C 
ATOM     16  C   UNL     1      24.497   4.669  48.784  0.00  0.00    +0.000 C 
ATOM     17  C   UNL     1      25.402   4.182  49.630  0.00  0.00    +0.000 C 
ENDROOT
BRANCH   7  18
ATOM     18  C   UNL     1      26.358   0.849  53.323  0.00  0.00    +0.000 C 
ATOM     19  O   UNL     1      26.237   1.112  54.522  0.00  0.00    +0.000 OA
BRANCH  18  20
ATOM     20  C   UNL     1      27.389  -0.204  52.903  0.00  0.00    +0.000 C 
ATOM     21  C   UNL     1      26.920  -1.657  52.807  0.00  0.00    +0.000 C 
BRANCH  20  22
ATOM     22  C   UNL     1      28.620   0.036  53.794  0.00  0.00    +0.000 C 
ATOM     23  C   UNL     1      29.880  -0.629  53.270  0.00  0.00    +0.000 C 
BRANCH  22  24
ATOM     24  O   UNL     1      28.340  -0.390  55.127  0.00  0.00    +0.000 OA
ATOM     25  H   UNL     1      28.924   0.078  55.745  0.00  0.00    +0.000 HD
ENDBRANCH  22  24
ENDBRANCH  20  22
ENDBRANCH  18  20
ENDBRANCH   7  18
BRANCH   8  26
ATOM     26  O   UNL     1      27.217   3.035  51.385  0.00  0.00    +0.000 OA
ATOM     27  H   UNL     1      27.891   2.618  51.885  0.00  0.00    +0.000 HD
ENDBRANCH   8  26
BRANCH   1  28
ATOM     28  C   UNL     1      20.872   3.020  52.617  0.00  0.00    +0.000 C 
BRANCH  28  30
ATOM     29  C   UNL     1      19.283   4.121  50.987  0.00  0.00    +0.000 C 
ATOM     30  C   UNL     1      19.587   2.862  51.795  0.00  0.00    +0.000 C 
ENDBRANCH  28  30
ENDBRANCH   1  28
TORSDOF 7
ENDMDL
MODEL 2
REMARK VINA RESULT:    -8.567      2.631      7.127
REMARK INTER + INTRA:         -12.572
REMARK INTER:                 -11.714
REMARK INTRA:                  -0.857
REMARK UNBOUND:                -1.000
REMARK  Name = 
REMARK  12 active torsions:
REMARK  status: ('A' for Active; 'I' for Inactive)
REMARK    1  A    between atoms: C_1  and  C_2
REMARK    2  A    between atoms: C_2  and  C_3
REMARK    3  A    between atoms: C_3  and  C_4
REMARK    4  A    between atoms: C_10  and  C_11
REMARK    5  A    between atoms: C_11  and  C_13
REMARK    6  A    between atoms: C_13  and  C_14
REMARK    7  A    between atoms: C_13  and  C_15
REMARK    8  A    between atoms: C_15  and  C_16
REMARK    9  A    between atoms: C_15  and  O_17
REMARK   10  A    between atoms: C_18  and  O_19
REMARK   11  A    between atoms: C_24  and  C_25
REMARK   12  A    between atoms: C_24  and  C_26
REMARK                            x       y       z     vdW  Elec       q    Type
REMARK                         _______ _______ _______ _____ _____    ______ ____
ROOT
ATOM      1  C   UNL     1      23.641   2.115  50.844  0.00  0.00    +0.000 A 
ATOM      2  C   UNL     1      22.914   2.440  49.758  0.00  0.00    +0.000 A 
ATOM      3  C   UNL     1      21.805   1.618  49.279  0.00  0.00    +0.000 A 
ATOM      4  O   UNL     1      21.442   1.630  48.112  0.00  0.00    +0.000 OA
ATOM      5  O   UNL     1      21.168   0.919  50.269  0.00  0.00    +0.000 OA
ATOM      6  C   UNL     1      21.742   0.807  51.554  0.00  0.00    +0.000 A 
ATOM      7  C   UNL     1      20.895   0.401  52.590  0.00  0.00    +0.000 A 
ATOM      8  C   UNL     1      21.482  -0.109  53.734  0.00  0.00    +0.000 A 
ATOM      9  C   UNL     1      22.896  -0.192  53.834  0.00  0.00    +0.000 A 
ATOM     10  C   UNL     1      23.718   0.464  52.862  0.00  0.00    +0.000 A 
ATOM     11  C   UNL     1      23.110   1.055  51.738  0.00  0.00    +0.000 A 
ATOM     12  O   UNL     1      25.085   0.523  53.005  0.00  0.00    +0.000 OA
ATOM     13  C   UNL     1      25.751  -0.420  53.891  0.00  0.00    +0.000 C 
ATOM     14  C   UNL     1      26.429  -1.479  53.020  0.00  0.00    +0.000 C 
ATOM     15  C   UNL     1      26.807   0.345  54.684  0.00  0.00    +0.000 C 
ATOM     16  C   UNL     1      24.846  -1.094  54.900  0.00  0.00    +0.000 C 
ATOM     17  C   UNL     1      23.525  -0.929  54.913  0.00  0.00    +0.000 C 
ENDROOT
BRANCH   7  18
ATOM     18  C   UNL     1      19.443   0.614  52.342  0.00  0.00    +0.000 C 
ATOM     19  O   UNL     1      18.984   1.753  52.470  0.00  0.00    +0.000 OA
BRANCH  18  20
ATOM     20  C   UNL     1      18.486  -0.523  51.969  0.00  0.00    +0.000 C 
ATOM     21  C   UNL     1      17.515  -0.283  50.811  0.00  0.00    +0.000 C 
BRANCH  20  22
ATOM     22  C   UNL     1      17.842  -0.980  53.289  0.00  0.00    +0.000 C 
ATOM     23  C   UNL     1      18.031  -2.460  53.569  0.00  0.00    +0.000 C 
BRANCH  22  24
ATOM     24  O   UNL     1      16.456  -0.638  53.292  0.00  0.00    +0.000 OA
ATOM     25  H   UNL     1      16.340   0.237  53.694  0.00  0.00    +0.000 HD
ENDBRANCH  22  24
ENDBRANCH  20  22
ENDBRANCH  18  20
ENDBRANCH   7  18
BRANCH   8  26
ATOM     26  O   UNL     1      20.774  -0.610  54.792  0.00  0.00    +0.000 OA
ATOM     27  H   UNL     1      19.935  -0.250  55.006  0.00  0.00    +0.000 HD
ENDBRANCH   8  26
BRANCH   1  28
ATOM     28  C   UNL     1      24.746   3.061  51.255  0.00  0.00    +0.000 C 
BRANCH  28  30
ATOM     29  C   UNL     1      26.470   3.703  49.518  0.00  0.00    +0.000 C 
ATOM     30  C   UNL     1      26.112   2.729  50.638  0.00  0.00    +0.000 C 
ENDBRANCH  28  30
ENDBRANCH   1  28
TORSDOF 7
ENDMDL
MODEL 3
REMARK VINA RESULT:    -8.353      1.666      4.415
REMARK INTER + INTRA:         -12.283
REMARK INTER:                 -10.972
REMARK INTRA:                  -1.310
REMARK UNBOUND:                -1.000
REMARK  Name = 
REMARK  12 active torsions:
REMARK  status: ('A' for Active; 'I' for Inactive)
REMARK    1  A    between atoms: C_1  and  C_2
REMARK    2  A    between atoms: C_2  and  C_3
REMARK    3  A    between atoms: C_3  and  C_4
REMARK    4  A    between atoms: C_10  and  C_11
REMARK    5  A    between atoms: C_11  and  C_13
REMARK    6  A    between atoms: C_13  and  C_14
REMARK    7  A    between atoms: C_13  and  C_15
REMARK    8  A    between atoms: C_15  and  C_16
REMARK    9  A    between atoms: C_15  and  O_17
REMARK   10  A    between atoms: C_18  and  O_19
REMARK   11  A    between atoms: C_24  and  C_25
REMARK   12  A    between atoms: C_24  and  C_26
REMARK                            x       y       z     vdW  Elec       q    Type
REMARK                         _______ _______ _______ _____ _____    ______ ____
ROOT
ATOM      1  C   UNL     1      23.296   2.679  49.324  0.00  0.00    +0.000 A 
ATOM      2  C   UNL     1      24.408   3.397  49.077  0.00  0.00    +0.000 A 
ATOM      3  C   UNL     1      25.318   3.828  50.137  0.00  0.00    +0.000 A 
ATOM      4  O   UNL     1      26.039   4.806  50.017  0.00  0.00    +0.000 OA
ATOM      5  O   UNL     1      25.345   2.986  51.215  0.00  0.00    +0.000 OA
ATOM      6  C   UNL     1      24.365   1.981  51.369  0.00  0.00    +0.000 A 
ATOM      7  C   UNL     1      24.653   0.954  52.274  0.00  0.00    +0.000 A 
ATOM      8  C   UNL     1      23.590   0.207  52.753  0.00  0.00    +0.000 A 
ATOM      9  C   UNL     1      22.269   0.484  52.314  0.00  0.00    +0.000 A 
ATOM     10  C   UNL     1      22.057   1.367  51.207  0.00  0.00    +0.000 A 
ATOM     11  C   UNL     1      23.155   2.065  50.668  0.00  0.00    +0.000 A 
ATOM     12  O   UNL     1      20.805   1.548  50.667  0.00  0.00    +0.000 OA
ATOM     13  C   UNL     1      19.631   1.194  51.451  0.00  0.00    +0.000 C 
ATOM     14  C   UNL     1      19.006   2.492  51.967  0.00  0.00    +0.000 C 
ATOM     15  C   UNL     1      18.647   0.481  50.529  0.00  0.00    +0.000 C 
ATOM     16  C   UNL     1      19.900   0.262  52.613  0.00  0.00    +0.000 C 
ATOM     17  C   UNL     1      21.125  -0.121  52.967  0.00  0.00    +0.000 C 
ENDROOT
BRANCH   7  18
ATOM     18  C   UNL     1      26.097   0.762  52.579  0.00  0.00    +0.000 C 
ATOM     19  O   UNL     1      26.766   0.042  51.833  0.00  0.00    +0.000 OA
BRANCH  18  20
ATOM     20  C   UNL     1      26.782   1.392  53.796  0.00  0.00    +0.000 C 
ATOM     21  C   UNL     1      27.912   2.390  53.538  0.00  0.00    +0.000 C 
BRANCH  20  22
ATOM     22  C   UNL     1      27.133   0.222  54.732  0.00  0.00    +0.000 C 
ATOM     23  C   UNL     1      28.625  -0.037  54.835  0.00  0.00    +0.000 C 
BRANCH  22  24
ATOM     24  O   UNL     1      26.443  -0.955  54.311  0.00  0.00    +0.000 OA
ATOM     25  H   UNL     1      25.511  -0.742  54.147  0.00  0.00    +0.000 HD
ENDBRANCH  22  24
ENDBRANCH  20  22
ENDBRANCH  18  20
ENDBRANCH   7  18
BRANCH   8  26
ATOM     26  O   UNL     1      23.719  -0.778  53.694  0.00  0.00    +0.000 OA
ATOM     27  H   UNL     1      23.051  -1.430  53.784  0.00  0.00    +0.000 HD
ENDBRANCH   8  26
BRANCH   1  28
ATOM     28  C   UNL     1      22.449   2.271  48.139  0.00  0.00    +0.000 C 
BRANCH  28  30
ATOM     29  C   UNL     1      20.774   4.159  48.302  0.00  0.00    +0.000 C 
ATOM     30  C   UNL     1      21.790   3.449  47.410  0.00  0.00    +0.000 C 
ENDBRANCH  28  30
ENDBRANCH   1  28
TORSDOF 7
ENDMDL
MODEL 4
REMARK VINA RESULT:    -7.797      2.076      6.984
REMARK INTER + INTRA:         -11.531
REMARK INTER:                 -10.463
REMARK INTRA:                  -1.068
REMARK UNBOUND:                -1.000
REMARK  Name = 
REMARK  12 active torsions:
REMARK  status: ('A' for Active; 'I' for Inactive)
REMARK    1  A    between atoms: C_1  and  C_2
REMARK    2  A    between atoms: C_2  and  C_3
REMARK    3  A    between atoms: C_3  and  C_4
REMARK    4  A    between atoms: C_10  and  C_11
REMARK    5  A    between atoms: C_11  and  C_13
REMARK    6  A    between atoms: C_13  and  C_14
REMARK    7  A    between atoms: C_13  and  C_15
REMARK    8  A    between atoms: C_15  and  C_16
REMARK    9  A    between atoms: C_15  and  O_17
REMARK   10  A    between atoms: C_18  and  O_19
REMARK   11  A    between atoms: C_24  and  C_25
REMARK   12  A    between atoms: C_24  and  C_26
REMARK                            x       y       z     vdW  Elec       q    Type
REMARK                         _______ _______ _______ _____ _____    ______ ____
ROOT
ATOM      1  C   UNL     1      24.272   2.604  50.236  0.00  0.00    +0.000 A 
ATOM      2  C   UNL     1      23.553   3.029  49.180  0.00  0.00    +0.000 A 
ATOM      3  C   UNL     1      22.310   2.383  48.765  0.00  0.00    +0.000 A 
ATOM      4  O   UNL     1      21.899   2.443  47.616  0.00  0.00    +0.000 OA
ATOM      5  O   UNL     1      21.622   1.799  49.793  0.00  0.00    +0.000 OA
ATOM      6  C   UNL     1      22.232   1.610  51.052  0.00  0.00    +0.000 A 
ATOM      7  C   UNL     1      21.383   1.346  52.131  0.00  0.00    +0.000 A 
ATOM      8  C   UNL     1      21.939   0.761  53.255  0.00  0.00    +0.000 A 
ATOM      9  C   UNL     1      23.327   0.463  53.291  0.00  0.00    +0.000 A 
ATOM     10  C   UNL     1      24.192   0.977  52.273  0.00  0.00    +0.000 A 
ATOM     11  C   UNL     1      23.629   1.646  51.169  0.00  0.00    +0.000 A 
ATOM     12  O   UNL     1      25.557   0.826  52.352  0.00  0.00    +0.000 OA
ATOM     13  C   UNL     1      26.112  -0.201  53.221  0.00  0.00    +0.000 C 
ATOM     14  C   UNL     1      26.578  -1.358  52.336  0.00  0.00    +0.000 C 
ATOM     15  C   UNL     1      27.309   0.399  53.953  0.00  0.00    +0.000 C 
ATOM     16  C   UNL     1      25.164  -0.719  54.280  0.00  0.00    +0.000 C 
ATOM     17  C   UNL     1      23.886  -0.354  54.351  0.00  0.00    +0.000 C 
ENDROOT
BRANCH   7  18
ATOM     18  C   UNL     1      19.970   1.779  51.948  0.00  0.00    +0.000 C 
ATOM     19  O   UNL     1      19.725   2.988  51.905  0.00  0.00    +0.000 OA
BRANCH  18  20
ATOM     20  C   UNL     1      18.804   0.790  51.842  0.00  0.00    +0.000 C 
ATOM     21  C   UNL     1      19.111  -0.694  52.050  0.00  0.00    +0.000 C 
BRANCH  20  22
ATOM     22  C   UNL     1      18.076   1.139  50.533  0.00  0.00    +0.000 C 
ATOM     23  C   UNL     1      16.927   0.199  50.216  0.00  0.00    +0.000 C 
BRANCH  22  24
ATOM     24  O   UNL     1      19.012   1.174  49.456  0.00  0.00    +0.000 OA
ATOM     25  H   UNL     1      19.823   1.619  49.747  0.00  0.00    +0.000 HD
ENDBRANCH  22  24
ENDBRANCH  20  22
ENDBRANCH  18  20
ENDBRANCH   7  18
BRANCH   8  26
ATOM     26  O   UNL     1      21.213   0.384  54.352  0.00  0.00    +0.000 OA
ATOM     27  H   UNL     1      20.322   0.662  54.443  0.00  0.00    +0.000 HD
ENDBRANCH   8  26
BRANCH   1  28
ATOM     28  C   UNL     1      25.528   3.373  50.582  0.00  0.00    +0.000 C 
BRANCH  28  30
ATOM     29  C   UNL     1      27.203   4.399  48.988  0.00  0.00    +0.000 C 
ATOM     30  C   UNL     1      25.826   4.540  49.632  0.00  0.00    +0.000 C 
ENDBRANCH  28  30
ENDBRANCH   1  28
TORSDOF 7
ENDMDL
MODEL 5
REMARK VINA RESULT:    -7.681      1.737      5.912
REMARK INTER + INTRA:         -11.375
REMARK INTER:                 -10.505
REMARK INTRA:                  -0.870
REMARK UNBOUND:                -1.000
REMARK  Name = 
REMARK  12 active torsions:
REMARK  status: ('A' for Active; 'I' for Inactive)
REMARK    1  A    between atoms: C_1  and  C_2
REMARK    2  A    between atoms: C_2  and  C_3
REMARK    3  A    between atoms: C_3  and  C_4
REMARK    4  A    between atoms: C_10  and  C_11
REMARK    5  A    between atoms: C_11  and  C_13
REMARK    6  A    between atoms: C_13  and  C_14
REMARK    7  A    between atoms: C_13  and  C_15
REMARK    8  A    between atoms: C_15  and  C_16
REMARK    9  A    between atoms: C_15  and  O_17
REMARK   10  A    between atoms: C_18  and  O_19
REMARK   11  A    between atoms: C_24  and  C_25
REMARK   12  A    between atoms: C_24  and  C_26
REMARK                            x       y       z     vdW  Elec       q    Type
REMARK                         _______ _______ _______ _____ _____    ______ ____
ROOT
ATOM      1  C   UNL     1      22.137   1.534  51.772  0.00  0.00    +0.000 A 
ATOM      2  C   UNL     1      21.076   2.334  51.560  0.00  0.00    +0.000 A 
ATOM      3  C   UNL     1      21.189   3.790  51.497  0.00  0.00    +0.000 A 
ATOM      4  O   UNL     1      20.248   4.527  51.752  0.00  0.00    +0.000 OA
ATOM      5  O   UNL     1      22.402   4.230  51.043  0.00  0.00    +0.000 OA
ATOM      6  C   UNL     1      23.496   3.343  50.938  0.00  0.00    +0.000 A 
ATOM      7  C   UNL     1      24.572   3.760  50.148  0.00  0.00    +0.000 A 
ATOM      8  C   UNL     1      25.792   3.138  50.349  0.00  0.00    +0.000 A 
ATOM      9  C   UNL     1      25.916   2.107  51.317  0.00  0.00    +0.000 A 
ATOM     10  C   UNL     1      24.742   1.547  51.914  0.00  0.00    +0.000 A 
ATOM     11  C   UNL     1      23.490   2.132  51.644  0.00  0.00    +0.000 A 
ATOM     12  O   UNL     1      24.816   0.455  52.748  0.00  0.00    +0.000 OA
ATOM     13  C   UNL     1      26.087   0.116  53.370  0.00  0.00    +0.000 C 
ATOM     14  C   UNL     1      26.021   0.553  54.834  0.00  0.00    +0.000 C 
ATOM     15  C   UNL     1      26.260  -1.398  53.293  0.00  0.00    +0.000 C 
ATOM     16  C   UNL     1      27.302   0.732  52.709  0.00  0.00    +0.000 C 
ATOM     17  C   UNL     1      27.219   1.604  51.707  0.00  0.00    +0.000 C 
ENDROOT
BRANCH   7  18
ATOM     18  C   UNL     1      24.252   4.809  49.142  0.00  0.00    +0.000 C 
ATOM     19  O   UNL     1      23.464   4.533  48.233  0.00  0.00    +0.000 OA
BRANCH  18  20
ATOM     20  C   UNL     1      24.883   6.205  49.165  0.00  0.00    +0.000 C 
ATOM     21  C   UNL     1      26.221   6.392  48.447  0.00  0.00    +0.000 C 
BRANCH  20  22
ATOM     22  C   UNL     1      24.852   6.654  50.636  0.00  0.00    +0.000 C 
ATOM     23  C   UNL     1      23.661   7.535  50.971  0.00  0.00    +0.000 C 
BRANCH  22  24
ATOM     24  O   UNL     1      26.075   7.314  50.963  0.00  0.00    +0.000 OA
ATOM     25  H   UNL     1      26.659   7.317  50.188  0.00  0.00    +0.000 HD
ENDBRANCH  22  24
ENDBRANCH  20  22
ENDBRANCH  18  20
ENDBRANCH   7  18
BRANCH   8  26
ATOM     26  O   UNL     1      26.942   3.495  49.699  0.00  0.00    +0.000 OA
ATOM     27  H   UNL     1      27.776   3.273  50.065  0.00  0.00    +0.000 HD
ENDBRANCH   8  26
BRANCH   1  28
ATOM     28  C   UNL     1      21.895   0.041  51.789  0.00  0.00    +0.000 C 
BRANCH  28  30
ATOM     29  C   UNL     1      22.100  -1.213  53.976  0.00  0.00    +0.000 C 
ATOM     30  C   UNL     1      21.159  -0.456  53.040  0.00  0.00    +0.000 C 
ENDBRANCH  28  30
ENDBRANCH   1  28
TORSDOF 7
ENDMDL
MODEL 6
REMARK VINA RESULT:    -7.412      1.831      6.906
REMARK INTER + INTRA:         -11.012
REMARK INTER:                  -9.430
REMARK INTRA:                  -1.581
REMARK UNBOUND:                -1.000
REMARK  Name = 
REMARK  12 active torsions:
REMARK  status: ('A' for Active; 'I' for Inactive)
REMARK    1  A    between atoms: C_1  and  C_2
REMARK    2  A    between atoms: C_2  and  C_3
REMARK    3  A    between atoms: C_3  and  C_4
REMARK    4  A    between atoms: C_10  and  C_11
REMARK    5  A    between atoms: C_11  and  C_13
REMARK    6  A    between atoms: C_13  and  C_14
REMARK    7  A    between atoms: C_13  and  C_15
REMARK    8  A    between atoms: C_15  and  C_16
REMARK    9  A    between atoms: C_15  and  O_17
REMARK   10  A    between atoms: C_18  and  O_19
REMARK   11  A    between atoms: C_24  and  C_25
REMARK   12  A    between atoms: C_24  and  C_26
REMARK                            x       y       z     vdW  Elec       q    Type
REMARK                         _______ _______ _______ _____ _____    ______ ____
ROOT
ATOM      1  C   UNL     1      25.760   1.865  52.292  0.00  0.00    +0.000 A 
ATOM      2  C   UNL     1      26.578   2.478  51.415  0.00  0.00    +0.000 A 
ATOM      3  C   UNL     1      26.099   3.042  50.155  0.00  0.00    +0.000 A 
ATOM      4  O   UNL     1      26.830   3.185  49.186  0.00  0.00    +0.000 OA
ATOM      5  O   UNL     1      24.800   3.471  50.201  0.00  0.00    +0.000 OA
ATOM      6  C   UNL     1      23.963   3.116  51.282  0.00  0.00    +0.000 A 
ATOM      7  C   UNL     1      22.792   3.864  51.444  0.00  0.00    +0.000 A 
ATOM      8  C   UNL     1      21.777   3.307  52.201  0.00  0.00    +0.000 A 
ATOM      9  C   UNL     1      21.947   2.027  52.791  0.00  0.00    +0.000 A 
ATOM     10  C   UNL     1      23.243   1.418  52.808  0.00  0.00    +0.000 A 
ATOM     11  C   UNL     1      24.297   2.031  52.104  0.00  0.00    +0.000 A 
ATOM     12  O   UNL     1      23.473   0.246  53.492  0.00  0.00    +0.000 OA
ATOM     13  C   UNL     1      22.349  -0.606  53.846  0.00  0.00    +0.000 C 
ATOM     14  C   UNL     1      22.347  -1.798  52.888  0.00  0.00    +0.000 C 
ATOM     15  C   UNL     1      22.562  -1.097  55.275  0.00  0.00    +0.000 C 
ATOM     16  C   UNL     1      20.997   0.076  53.813  0.00  0.00    +0.000 C 
ATOM     17  C   UNL     1      20.827   1.326  53.387  0.00  0.00    +0.000 C 
ENDROOT
BRANCH   7  18
ATOM     18  C   UNL     1      22.806   5.210  50.809  0.00  0.00    +0.000 C 
ATOM     19  O   UNL     1      23.339   6.143  51.416  0.00  0.00    +0.000 OA
BRANCH  18  20
ATOM     20  C   UNL     1      22.158   5.495  49.450  0.00  0.00    +0.000 C 
ATOM     21  C   UNL     1      21.617   4.304  48.657  0.00  0.00    +0.000 C 
BRANCH  20  22
ATOM     22  C   UNL     1      23.148   6.399  48.695  0.00  0.00    +0.000 C 
ATOM     23  C   UNL     1      22.769   6.623  47.242  0.00  0.00    +0.000 C 
BRANCH  22  24
ATOM     24  O   UNL     1      24.466   5.859  48.796  0.00  0.00    +0.000 OA
ATOM     25  H   UNL     1      24.421   4.890  48.772  0.00  0.00    +0.000 HD
ENDBRANCH  22  24
ENDBRANCH  20  22
ENDBRANCH  18  20
ENDBRANCH   7  18
BRANCH   8  26
ATOM     26  O   UNL     1      20.555   3.895  52.381  0.00  0.00    +0.000 OA
ATOM     27  H   UNL     1      20.500   4.772  52.709  0.00  0.00    +0.000 HD
ENDBRANCH   8  26
BRANCH   1  28
ATOM     28  C   UNL     1      26.373   1.345  53.573  0.00  0.00    +0.000 C 
BRANCH  28  30
ATOM     29  C   UNL     1      26.581  -1.026  52.718  0.00  0.00    +0.000 C 
ATOM     30  C   UNL     1      27.308   0.145  53.376  0.00  0.00    +0.000 C 
ENDBRANCH  28  30
ENDBRANCH   1  28
TORSDOF 7
ENDMDL
MODEL 7
REMARK VINA RESULT:    -7.127      1.935      5.060
REMARK INTER + INTRA:         -10.626
REMARK INTER:                  -9.562
REMARK INTRA:                  -1.064
REMARK UNBOUND:                -1.000
REMARK  Name = 
REMARK  12 active torsions:
REMARK  status: ('A' for Active; 'I' for Inactive)
REMARK    1  A    between atoms: C_1  and  C_2
REMARK    2  A    between atoms: C_2  and  C_3
REMARK    3  A    between atoms: C_3  and  C_4
REMARK    4  A    between atoms: C_10  and  C_11
REMARK    5  A    between atoms: C_11  and  C_13
REMARK    6  A    between atoms: C_13  and  C_14
REMARK    7  A    between atoms: C_13  and  C_15
REMARK    8  A    between atoms: C_15  and  C_16
REMARK    9  A    between atoms: C_15  and  O_17
REMARK   10  A    between atoms: C_18  and  O_19
REMARK   11  A    between atoms: C_24  and  C_25
REMARK   12  A    between atoms: C_24  and  C_26
REMARK                            x       y       z     vdW  Elec       q    Type
REMARK                         _______ _______ _______ _____ _____    ______ ____
ROOT
ATOM      1  C   UNL     1      21.431   3.861  49.712  0.00  0.00    +0.000 A 
ATOM      2  C   UNL     1      22.326   4.867  49.743  0.00  0.00    +0.000 A 
ATOM      3  C   UNL     1      23.071   5.220  50.949  0.00  0.00    +0.000 A 
ATOM      4  O   UNL     1      23.519   6.342  51.132  0.00  0.00    +0.000 OA
ATOM      5  O   UNL     1      23.292   4.163  51.790  0.00  0.00    +0.000 OA
ATOM      6  C   UNL     1      22.601   2.944  51.611  0.00  0.00    +0.000 A 
ATOM      7  C   UNL     1      23.124   1.822  52.261  0.00  0.00    +0.000 A 
ATOM      8  C   UNL     1      22.280   0.742  52.451  0.00  0.00    +0.000 A 
ATOM      9  C   UNL     1      20.941   0.792  51.981  0.00  0.00    +0.000 A 
ATOM     10  C   UNL     1      20.532   1.850  51.107  0.00  0.00    +0.000 A 
ATOM     11  C   UNL     1      21.424   2.908  50.850  0.00  0.00    +0.000 A 
ATOM     12  O   UNL     1      19.287   1.852  50.522  0.00  0.00    +0.000 OA
ATOM     13  C   UNL     1      18.228   1.035  51.094  0.00  0.00    +0.000 C 
ATOM     14  C   UNL     1      17.279   1.964  51.852  0.00  0.00    +0.000 C 
ATOM     15  C   UNL     1      17.480   0.363  49.945  0.00  0.00    +0.000 C 
ATOM     16  C   UNL     1      18.703  -0.070  52.014  0.00  0.00    +0.000 C 
ATOM     17  C   UNL     1      19.978  -0.221  52.368  0.00  0.00    +0.000 C 
ENDROOT
BRANCH   7  18
ATOM     18  C   UNL     1      24.562   1.916  52.633  0.00  0.00    +0.000 C 
ATOM     19  O   UNL     1      24.855   2.341  53.754  0.00  0.00    +0.000 OA
BRANCH  18  20
ATOM     20  C   UNL     1      25.696   1.541  51.673  0.00  0.00    +0.000 C 
ATOM     21  C   UNL     1      26.614   0.386  52.075  0.00  0.00    +0.000 C 
BRANCH  20  22
ATOM     22  C   UNL     1      26.405   2.861  51.326  0.00  0.00    +0.000 C 
ATOM     23  C   UNL     1      26.429   3.158  49.837  0.00  0.00    +0.000 C 
BRANCH  22  24
ATOM     24  O   UNL     1      27.729   2.850  51.860  0.00  0.00    +0.000 OA
ATOM     25  H   UNL     1      28.343   3.229  51.210  0.00  0.00    +0.000 HD
ENDBRANCH  22  24
ENDBRANCH  20  22
ENDBRANCH  18  20
ENDBRANCH   7  18
BRANCH   8  26
ATOM     26  O   UNL     1      22.637  -0.389  53.134  0.00  0.00    +0.000 OA
ATOM     27  H   UNL     1      22.192  -1.197  52.967  0.00  0.00    +0.000 HD
ENDBRANCH   8  26
BRANCH   1  28
ATOM     28  C   UNL     1      20.744   3.577  48.395  0.00  0.00    +0.000 C 
BRANCH  28  30
ATOM     29  C   UNL     1      22.445   1.909  47.546  0.00  0.00    +0.000 C 
ATOM     30  C   UNL     1      21.704   3.213  47.256  0.00  0.00    +0.000 C 
ENDBRANCH  28  30
ENDBRANCH   1  28
TORSDOF 7
ENDMDL
MODEL 8
REMARK VINA RESULT:    -7.102      2.351      6.784
REMARK INTER + INTRA:         -10.593
REMARK INTER:                  -9.051
REMARK INTRA:                  -1.542
REMARK UNBOUND:                -1.000
REMARK  Name = 
REMARK  12 active torsions:
REMARK  status: ('A' for Active; 'I' for Inactive)
REMARK    1  A    between atoms: C_1  and  C_2
REMARK    2  A    between atoms: C_2  and  C_3
REMARK    3  A    between atoms: C_3  and  C_4
REMARK    4  A    between atoms: C_10  and  C_11
REMARK    5  A    between atoms: C_11  and  C_13
REMARK    6  A    between atoms: C_13  and  C_14
REMARK    7  A    between atoms: C_13  and  C_15
REMARK    8  A    between atoms: C_15  and  C_16
REMARK    9  A    between atoms: C_15  and  O_17
REMARK   10  A    between atoms: C_18  and  O_19
REMARK   11  A    between atoms: C_24  and  C_25
REMARK   12  A    between atoms: C_24  and  C_26
REMARK                            x       y       z     vdW  Elec       q    Type
REMARK                         _______ _______ _______ _____ _____    ______ ____
ROOT
ATOM      1  C   UNL     1      25.465   2.488  51.666  0.00  0.00    +0.000 A 
ATOM      2  C   UNL     1      26.542   2.865  50.951  0.00  0.00    +0.000 A 
ATOM      3  C   UNL     1      26.434   3.628  49.709  0.00  0.00    +0.000 A 
ATOM      4  O   UNL     1      27.298   3.593  48.846  0.00  0.00    +0.000 OA
ATOM      5  O   UNL     1      25.334   4.441  49.655  0.00  0.00    +0.000 OA
ATOM      6  C   UNL     1      24.290   4.302  50.596  0.00  0.00    +0.000 A 
ATOM      7  C   UNL     1      23.393   5.370  50.703  0.00  0.00    +0.000 A 
ATOM      8  C   UNL     1      22.162   5.115  51.283  0.00  0.00    +0.000 A 
ATOM      9  C   UNL     1      21.852   3.813  51.756  0.00  0.00    +0.000 A 
ATOM     10  C   UNL     1      22.886   2.827  51.853  0.00  0.00    +0.000 A 
ATOM     11  C   UNL     1      24.162   3.118  51.336  0.00  0.00    +0.000 A 
ATOM     12  O   UNL     1      22.653   1.602  52.437  0.00  0.00    +0.000 OA
ATOM     13  C   UNL     1      21.285   1.128  52.577  0.00  0.00    +0.000 C 
ATOM     14  C   UNL     1      21.050   0.058  51.509  0.00  0.00    +0.000 C 
ATOM     15  C   UNL     1      21.141   0.508  53.964  0.00  0.00    +0.000 C 
ATOM     16  C   UNL     1      20.223   2.202  52.464  0.00  0.00    +0.000 C 
ATOM     17  C   UNL     1      20.501   3.465  52.151  0.00  0.00    +0.000 C 
ENDROOT
BRANCH   7  18
ATOM     18  C   UNL     1      23.902   6.679  50.212  0.00  0.00    +0.000 C 
ATOM     19  O   UNL     1      24.581   7.372  50.976  0.00  0.00    +0.000 OA
BRANCH  18  20
ATOM     20  C   UNL     1      23.594   7.220  48.812  0.00  0.00    +0.000 C 
ATOM     21  C   UNL     1      22.885   6.286  47.830  0.00  0.00    +0.000 C 
BRANCH  20  22
ATOM     22  C   UNL     1      24.906   7.842  48.305  0.00  0.00    +0.000 C 
ATOM     23  C   UNL     1      24.804   8.392  46.893  0.00  0.00    +0.000 C 
BRANCH  22  24
ATOM     24  O   UNL     1      25.961   6.884  48.399  0.00  0.00    +0.000 OA
ATOM     25  H   UNL     1      25.721   6.202  49.046  0.00  0.00    +0.000 HD
ENDBRANCH  22  24
ENDBRANCH  20  22
ENDBRANCH  18  20
ENDBRANCH   7  18
BRANCH   8  26
ATOM     26  O   UNL     1      21.165   6.046  51.386  0.00  0.00    +0.000 OA
ATOM     27  H   UNL     1      20.333   5.804  51.743  0.00  0.00    +0.000 HD
ENDBRANCH   8  26
BRANCH   1  28
ATOM     28  C   UNL     1      25.710   1.724  52.948  0.00  0.00    +0.000 C 
BRANCH  28  30
ATOM     29  C   UNL     1      25.070  -0.700  53.278  0.00  0.00    +0.000 C 
ATOM     30  C   UNL     1      26.123   0.263  52.733  0.00  0.00    +0.000 C 
ENDBRANCH  28  30
ENDBRANCH   1  28
TORSDOF 7
ENDMDL
MODEL 9
REMARK VINA RESULT:    -7.006      2.504      5.856
REMARK INTER + INTRA:         -10.463
REMARK INTER:                  -9.481
REMARK INTRA:                  -0.982
REMARK UNBOUND:                -1.000
REMARK  Name = 
REMARK  12 active torsions:
REMARK  status: ('A' for Active; 'I' for Inactive)
REMARK    1  A    between atoms: C_1  and  C_2
REMARK    2  A    between atoms: C_2  and  C_3
REMARK    3  A    between atoms: C_3  and  C_4
REMARK    4  A    between atoms: C_10  and  C_11
REMARK    5  A    between atoms: C_11  and  C_13
REMARK    6  A    between atoms: C_13  and  C_14
REMARK    7  A    between atoms: C_13  and  C_15
REMARK    8  A    between atoms: C_15  and  C_16
REMARK    9  A    between atoms: C_15  and  O_17
REMARK   10  A    between atoms: C_18  and  O_19
REMARK   11  A    between atoms: C_24  and  C_25
REMARK   12  A    between atoms: C_24  and  C_26
REMARK                            x       y       z     vdW  Elec       q    Type
REMARK                         _______ _______ _______ _____ _____    ______ ____
ROOT
ATOM      1  C   UNL     1      20.713   2.728  50.310  0.00  0.00    +0.000 A 
ATOM      2  C   UNL     1      20.239   3.873  49.782  0.00  0.00    +0.000 A 
ATOM      3  C   UNL     1      20.614   5.189  50.295  0.00  0.00    +0.000 A 
ATOM      4  O   UNL     1      19.897   6.169  50.156  0.00  0.00    +0.000 OA
ATOM      5  O   UNL     1      21.863   5.230  50.851  0.00  0.00    +0.000 OA
ATOM      6  C   UNL     1      22.561   4.036  51.141  0.00  0.00    +0.000 A 
ATOM      7  C   UNL     1      23.937   4.149  51.365  0.00  0.00    +0.000 A 
ATOM      8  C   UNL     1      24.562   3.115  52.040  0.00  0.00    +0.000 A 
ATOM      9  C   UNL     1      23.814   1.986  52.466  0.00  0.00    +0.000 A 
ATOM     10  C   UNL     1      22.474   1.802  51.996  0.00  0.00    +0.000 A 
ATOM     11  C   UNL     1      21.867   2.822  51.239  0.00  0.00    +0.000 A 
ATOM     12  O   UNL     1      21.771   0.653  52.275  0.00  0.00    +0.000 OA
ATOM     13  C   UNL     1      22.196  -0.194  53.380  0.00  0.00    +0.000 C 
ATOM     14  C   UNL     1      21.228   0.036  54.542  0.00  0.00    +0.000 C 
ATOM     15  C   UNL     1      22.110  -1.646  52.920  0.00  0.00    +0.000 C 
ATOM     16  C   UNL     1      23.617   0.036  53.848  0.00  0.00    +0.000 C 
ATOM     17  C   UNL     1      24.390   1.009  53.369  0.00  0.00    +0.000 C 
ENDROOT
BRANCH   7  18
ATOM     18  C   UNL     1      24.574   5.369  50.798  0.00  0.00    +0.000 C 
ATOM     19  O   UNL     1      24.510   6.421  51.441  0.00  0.00    +0.000 OA
BRANCH  18  20
ATOM     20  C   UNL     1      25.276   5.384  49.436  0.00  0.00    +0.000 C 
ATOM     21  C   UNL     1      26.406   4.378  49.209  0.00  0.00    +0.000 C 
BRANCH  20  22
ATOM     22  C   UNL     1      25.636   6.855  49.166  0.00  0.00    +0.000 C 
ATOM     23  C   UNL     1      25.773   7.179  47.689  0.00  0.00    +0.000 C 
BRANCH  22  24
ATOM     24  O   UNL     1      26.829   7.196  49.871  0.00  0.00    +0.000 OA
ATOM     25  H   UNL     1      27.597   6.835  49.400  0.00  0.00    +0.000 HD
ENDBRANCH  22  24
ENDBRANCH  20  22
ENDBRANCH  18  20
ENDBRANCH   7  18
BRANCH   8  26
ATOM     26  O   UNL     1      25.885   3.128  52.389  0.00  0.00    +0.000 OA
ATOM     27  H   UNL     1      26.339   2.321  52.535  0.00  0.00    +0.000 HD
ENDBRANCH   8  26
BRANCH   1  28
ATOM     28  C   UNL     1      20.271   1.429  49.674  0.00  0.00    +0.000 C 
BRANCH  28  30
ATOM     29  C   UNL     1      18.655   0.219  51.197  0.00  0.00    +0.000 C 
ATOM     30  C   UNL     1      18.803   1.073  49.940  0.00  0.00    +0.000 C 
ENDBRANCH  28  30
ENDBRANCH   1  28
TORSDOF 7
ENDMDL
