MODEL 1
REMARK VINA RESULT:    -9.174      0.000      0.000
REMARK INTER + INTRA:         -11.539
REMARK INTER:                 -11.052
REMARK INTRA:                  -0.488
REMARK UNBOUND:                -0.488
REMARK  Name = 
REMARK  9 active torsions:
REMARK  status: ('A' for Active; 'I' for Inactive)
REMARK    1  A    between atoms: C_1  and  C_2
REMARK    2  A    between atoms: C_2  and  C_3
REMARK    3  A    between atoms: C_3  and  C_4
REMARK    4  A    between atoms: C_16  and  C_17
REMARK    5  A    between atoms: C_16  and  C_18
REMARK    6  A    between atoms: C_22  and  C_23
REMARK    7  A    between atoms: C_23  and  C_24
REMARK    8  A    between atoms: C_25  and  C_26
REMARK    9  A    between atoms: C_27  and  O_28
REMARK                            x       y       z     vdW  Elec       q    Type
REMARK                         _______ _______ _______ _____ _____    ______ ____
ROOT
ATOM      1  C   UNL     1      22.114   0.832  52.655  0.00  0.00    +0.000 A 
ATOM      2  C   UNL     1      20.958   1.342  52.168  0.00  0.00    +0.000 A 
ATOM      3  C   UNL     1      20.625   2.765  52.289  0.00  0.00    +0.000 A 
ATOM      4  O   UNL     1      19.474   3.163  52.256  0.00  0.00    +0.000 OA
ATOM      5  O   UNL     1      21.688   3.595  52.508  0.00  0.00    +0.000 OA
ATOM      6  C   UNL     1      22.922   3.010  52.218  0.00  0.00    +0.000 A 
ATOM      7  C   UNL     1      23.675   3.586  51.228  0.00  0.00    +0.000 A 
ATOM      8  C   UNL     1      25.026   3.321  51.216  0.00  0.00    +0.000 A 
ATOM      9  C   UNL     1      25.545   2.385  52.133  0.00  0.00    +0.000 A 
ATOM     10  C   UNL     1      24.659   1.497  52.802  0.00  0.00    +0.000 A 
ATOM     11  C   UNL     1      23.277   1.767  52.746  0.00  0.00    +0.000 A 
ATOM     12  O   UNL     1      25.122   0.405  53.500  0.00  0.00    +0.000 OA
ATOM     13  C   UNL     1      26.552   0.120  53.518  0.00  0.00    +0.000 C 
ATOM     14  C   UNL     1      26.953  -0.214  54.964  0.00  0.00    +0.000 C 
ATOM     15  C   UNL     1      26.805  -1.109  52.634  0.00  0.00    +0.000 C 
ATOM     16  C   UNL     1      27.446   1.227  53.021  0.00  0.00    +0.000 C 
ATOM     17  C   UNL     1      26.987   2.278  52.332  0.00  0.00    +0.000 C 
ATOM     18  O   UNL     1      25.860   3.960  50.347  0.00  0.00    +0.000 OA
ATOM     19  C   UNL     1      25.312   4.573  49.164  0.00  0.00    +0.000 C 
ATOM     20  C   UNL     1      23.843   5.028  49.229  0.00  0.00    +0.000 C 
ATOM     21  C   UNL     1      23.235   5.281  47.836  0.00  0.00    +0.000 C 
ATOM     22  C   UNL     1      22.997   4.022  49.964  0.00  0.00    +0.000 C 
ENDROOT
BRANCH  19  23
ATOM     23  C   UNL     1      26.165   5.824  48.892  0.00  0.00    +0.000 C 
ATOM     24  C   UNL     1      27.598   5.502  48.516  0.00  0.00    +0.000 C 
ENDBRANCH  19  23
BRANCH  22  25
ATOM     25  O   UNL     1      21.700   4.578  50.125  0.00  0.00    +0.000 OA
ATOM     26  H   UNL     1      21.714   5.512  49.866  0.00  0.00    +0.000 HD
ENDBRANCH  22  25
BRANCH   1  27
ATOM     27  C   UNL     1      22.168  -0.663  52.784  0.00  0.00    +0.000 C 
BRANCH  27  29
ATOM     28  C   UNL     1      22.634  -1.316  55.192  0.00  0.00    +0.000 C 
ATOM     29  C   UNL     1      21.565  -1.108  54.126  0.00  0.00    +0.000 C 
ENDBRANCH  27  29
ENDBRANCH   1  27
TORSDOF 4
ENDMDL
MODEL 2
REMARK VINA RESULT:    -8.276      1.583      7.005
REMARK INTER + INTRA:         -10.457
REMARK INTER:                 -10.172
REMARK INTRA:                  -0.286
REMARK UNBOUND:                -0.488
REMARK  Name = 
REMARK  9 active torsions:
REMARK  status: ('A' for Active; 'I' for Inactive)
REMARK    1  A    between atoms: C_1  and  C_2
REMARK    2  A    between atoms: C_2  and  C_3
REMARK    3  A    between atoms: C_3  and  C_4
REMARK    4  A    between atoms: C_16  and  C_17
REMARK    5  A    between atoms: C_16  and  C_18
REMARK    6  A    between atoms: C_22  and  C_23
REMARK    7  A    between atoms: C_23  and  C_24
REMARK    8  A    between atoms: C_25  and  C_26
REMARK    9  A    between atoms: C_27  and  O_28
REMARK                            x       y       z     vdW  Elec       q    Type
REMARK                         _______ _______ _______ _____ _____    ______ ____
ROOT
ATOM      1  C   UNL     1      26.003   2.939  50.905  0.00  0.00    +0.000 A 
ATOM      2  C   UNL     1      26.760   2.096  51.646  0.00  0.00    +0.000 A 
ATOM      3  C   UNL     1      26.582   1.961  53.095  0.00  0.00    +0.000 A 
ATOM      4  O   UNL     1      27.477   1.564  53.821  0.00  0.00    +0.000 OA
ATOM      5  O   UNL     1      25.371   2.373  53.573  0.00  0.00    +0.000 OA
ATOM      6  C   UNL     1      24.395   2.506  52.583  0.00  0.00    +0.000 A 
ATOM      7  C   UNL     1      23.285   1.706  52.682  0.00  0.00    +0.000 A 
ATOM      8  C   UNL     1      22.152   2.101  52.008  0.00  0.00    +0.000 A 
ATOM      9  C   UNL     1      22.220   3.224  51.159  0.00  0.00    +0.000 A 
ATOM     10  C   UNL     1      23.489   3.715  50.749  0.00  0.00    +0.000 A 
ATOM     11  C   UNL     1      24.635   3.246  51.424  0.00  0.00    +0.000 A 
ATOM     12  O   UNL     1      23.615   4.631  49.729  0.00  0.00    +0.000 OA
ATOM     13  C   UNL     1      22.424   5.077  49.018  0.00  0.00    +0.000 C 
ATOM     14  C   UNL     1      22.502   6.606  48.870  0.00  0.00    +0.000 C 
ATOM     15  C   UNL     1      22.435   4.441  47.620  0.00  0.00    +0.000 C 
ATOM     16  C   UNL     1      21.107   4.729  49.662  0.00  0.00    +0.000 C 
ATOM     17  C   UNL     1      20.994   3.828  50.644  0.00  0.00    +0.000 C 
ATOM     18  O   UNL     1      20.973   1.433  52.163  0.00  0.00    +0.000 OA
ATOM     19  C   UNL     1      20.987   0.084  52.668  0.00  0.00    +0.000 C 
ATOM     20  C   UNL     1      22.173  -0.314  53.566  0.00  0.00    +0.000 C 
ATOM     21  C   UNL     1      22.323  -1.840  53.715  0.00  0.00    +0.000 C 
ATOM     22  C   UNL     1      23.463   0.264  53.047  0.00  0.00    +0.000 C 
ENDROOT
BRANCH  19  23
ATOM     23  C   UNL     1      19.708  -0.077  53.504  0.00  0.00    +0.000 C 
ATOM     24  C   UNL     1      18.565  -0.710  52.734  0.00  0.00    +0.000 C 
ENDBRANCH  19  23
BRANCH  22  25
ATOM     25  O   UNL     1      24.477  -0.006  54.004  0.00  0.00    +0.000 OA
ATOM     26  H   UNL     1      24.075  -0.372  54.808  0.00  0.00    +0.000 HD
ENDBRANCH  22  25
BRANCH   1  27
ATOM     27  C   UNL     1      26.516   3.243  49.527  0.00  0.00    +0.000 C 
BRANCH  27  29
ATOM     28  C   UNL     1      28.043   4.989  48.495  0.00  0.00    +0.000 C 
ATOM     29  C   UNL     1      26.836   4.740  49.392  0.00  0.00    +0.000 C 
ENDBRANCH  27  29
ENDBRANCH   1  27
TORSDOF 4
ENDMDL
MODEL 3
REMARK VINA RESULT:    -8.264      1.805      5.663
REMARK INTER + INTRA:         -10.442
REMARK INTER:                  -9.826
REMARK INTRA:                  -0.616
REMARK UNBOUND:                -0.488
REMARK  Name = 
REMARK  9 active torsions:
REMARK  status: ('A' for Active; 'I' for Inactive)
REMARK    1  A    between atoms: C_1  and  C_2
REMARK    2  A    between atoms: C_2  and  C_3
REMARK    3  A    between atoms: C_3  and  C_4
REMARK    4  A    between atoms: C_16  and  C_17
REMARK    5  A    between atoms: C_16  and  C_18
REMARK    6  A    between atoms: C_22  and  C_23
REMARK    7  A    between atoms: C_23  and  C_24
REMARK    8  A    between atoms: C_25  and  C_26
REMARK    9  A    between atoms: C_27  and  O_28
REMARK                            x       y       z     vdW  Elec       q    Type
REMARK                         _______ _______ _______ _____ _____    ______ ____
ROOT
ATOM      1  C   UNL     1      20.913   2.766  51.713  0.00  0.00    +0.000 A 
ATOM      2  C   UNL     1      20.176   1.866  52.405  0.00  0.00    +0.000 A 
ATOM      3  C   UNL     1      20.303   0.422  52.182  0.00  0.00    +0.000 A 
ATOM      4  O   UNL     1      19.404  -0.354  52.454  0.00  0.00    +0.000 OA
ATOM      5  O   UNL     1      21.469   0.025  51.591  0.00  0.00    +0.000 OA
ATOM      6  C   UNL     1      22.475   0.993  51.633  0.00  0.00    +0.000 A 
ATOM      7  C   UNL     1      23.623   0.679  52.312  0.00  0.00    +0.000 A 
ATOM      8  C   UNL     1      24.758   1.398  52.015  0.00  0.00    +0.000 A 
ATOM      9  C   UNL     1      24.660   2.492  51.131  0.00  0.00    +0.000 A 
ATOM     10  C   UNL     1      23.383   3.039  50.834  0.00  0.00    +0.000 A 
ATOM     11  C   UNL     1      22.240   2.301  51.204  0.00  0.00    +0.000 A 
ATOM     12  O   UNL     1      23.246   4.250  50.195  0.00  0.00    +0.000 OA
ATOM     13  C   UNL     1      24.437   5.017  49.853  0.00  0.00    +0.000 C 
ATOM     14  C   UNL     1      24.278   5.526  48.410  0.00  0.00    +0.000 C 
ATOM     15  C   UNL     1      24.519   6.222  50.800  0.00  0.00    +0.000 C 
ATOM     16  C   UNL     1      25.745   4.275  49.952  0.00  0.00    +0.000 C 
ATOM     17  C   UNL     1      25.869   3.104  50.588  0.00  0.00    +0.000 C 
ATOM     18  O   UNL     1      25.966   1.058  52.550  0.00  0.00    +0.000 OA
ATOM     19  C   UNL     1      26.008   0.248  53.739  0.00  0.00    +0.000 C 
ATOM     20  C   UNL     1      24.813  -0.689  53.990  0.00  0.00    +0.000 C 
ATOM     21  C   UNL     1      24.744  -1.192  55.445  0.00  0.00    +0.000 C 
ATOM     22  C   UNL     1      23.513  -0.015  53.636  0.00  0.00    +0.000 C 
ENDROOT
BRANCH  19  23
ATOM     23  C   UNL     1      27.261  -0.635  53.616  0.00  0.00    +0.000 C 
ATOM     24  C   UNL     1      27.092  -1.782  52.638  0.00  0.00    +0.000 C 
ENDBRANCH  19  23
BRANCH  22  25
ATOM     25  O   UNL     1      22.478  -0.982  53.738  0.00  0.00    +0.000 OA
ATOM     26  H   UNL     1      22.630  -1.687  53.089  0.00  0.00    +0.000 HD
ENDBRANCH  22  25
BRANCH   1  27
ATOM     27  C   UNL     1      20.439   4.190  51.777  0.00  0.00    +0.000 C 
BRANCH  27  29
ATOM     28  C   UNL     1      20.251   5.888  49.900  0.00  0.00    +0.000 C 
ATOM     29  C   UNL     1      19.726   4.576  50.471  0.00  0.00    +0.000 C 
ENDBRANCH  27  29
ENDBRANCH   1  27
TORSDOF 4
ENDMDL
MODEL 4
REMARK VINA RESULT:    -8.027      1.729      6.317
REMARK INTER + INTRA:         -10.157
REMARK INTER:                  -9.468
REMARK INTRA:                  -0.689
REMARK UNBOUND:                -0.488
REMARK  Name = 
REMARK  9 active torsions:
REMARK  status: ('A' for Active; 'I' for Inactive)
REMARK    1  A    between atoms: C_1  and  C_2
REMARK    2  A    between atoms: C_2  and  C_3
REMARK    3  A    between atoms: C_3  and  C_4
REMARK    4  A    between atoms: C_16  and  C_17
REMARK    5  A    between atoms: C_16  and  C_18
REMARK    6  A    between atoms: C_22  and  C_23
REMARK    7  A    between atoms: C_23  and  C_24
REMARK    8  A    between atoms: C_25  and  C_26
REMARK    9  A    between atoms: C_27  and  O_28
REMARK                            x       y       z     vdW  Elec       q    Type
REMARK                         _______ _______ _______ _____ _____    ______ ____
ROOT
ATOM      1  C   UNL     1      22.588   4.146  49.601  0.00  0.00    +0.000 A 
ATOM      2  C   UNL     1      23.837   4.609  49.361  0.00  0.00    +0.000 A 
ATOM      3  C   UNL     1      24.710   5.085  50.439  0.00  0.00    +0.000 A 
ATOM      4  O   UNL     1      25.621   5.868  50.233  0.00  0.00    +0.000 OA
ATOM      5  O   UNL     1      24.386   4.639  51.689  0.00  0.00    +0.000 OA
ATOM      6  C   UNL     1      23.525   3.540  51.685  0.00  0.00    +0.000 A 
ATOM      7  C   UNL     1      23.989   2.375  52.240  0.00  0.00    +0.000 A 
ATOM      8  C   UNL     1      23.058   1.441  52.637  0.00  0.00    +0.000 A 
ATOM      9  C   UNL     1      21.697   1.669  52.344  0.00  0.00    +0.000 A 
ATOM     10  C   UNL     1      21.344   2.648  51.377  0.00  0.00    +0.000 A 
ATOM     11  C   UNL     1      22.338   3.552  50.950  0.00  0.00    +0.000 A 
ATOM     12  O   UNL     1      20.068   2.732  50.866  0.00  0.00    +0.000 OA
ATOM     13  C   UNL     1      19.063   1.766  51.291  0.00  0.00    +0.000 C 
ATOM     14  C   UNL     1      17.766   2.532  51.600  0.00  0.00    +0.000 C 
ATOM     15  C   UNL     1      18.805   0.801  50.125  0.00  0.00    +0.000 C 
ATOM     16  C   UNL     1      19.421   0.934  52.496  0.00  0.00    +0.000 C 
ATOM     17  C   UNL     1      20.667   0.849  52.975  0.00  0.00    +0.000 C 
ATOM     18  O   UNL     1      23.433   0.320  53.315  0.00  0.00    +0.000 OA
ATOM     19  C   UNL     1      24.801  -0.123  53.247  0.00  0.00    +0.000 C 
ATOM     20  C   UNL     1      25.870   0.950  52.970  0.00  0.00    +0.000 C 
ATOM     21  C   UNL     1      27.213   0.351  52.512  0.00  0.00    +0.000 C 
ATOM     22  C   UNL     1      25.391   1.938  51.939  0.00  0.00    +0.000 C 
ENDROOT
BRANCH  19  23
ATOM     23  C   UNL     1      25.123  -0.744  54.616  0.00  0.00    +0.000 C 
ATOM     24  C   UNL     1      23.888  -1.167  55.387  0.00  0.00    +0.000 C 
ENDBRANCH  19  23
BRANCH  22  25
ATOM     25  O   UNL     1      26.352   2.980  51.854  0.00  0.00    +0.000 OA
ATOM     26  H   UNL     1      26.728   3.146  52.732  0.00  0.00    +0.000 HD
ENDBRANCH  22  25
BRANCH   1  27
ATOM     27  C   UNL     1      21.689   4.032  48.403  0.00  0.00    +0.000 C 
BRANCH  27  29
ATOM     28  C   UNL     1      21.957   1.539  48.010  0.00  0.00    +0.000 C 
ATOM     29  C   UNL     1      22.198   2.937  47.453  0.00  0.00    +0.000 C 
ENDBRANCH  27  29
ENDBRANCH   1  27
TORSDOF 4
ENDMDL
MODEL 5
REMARK VINA RESULT:    -8.026      2.472      6.397
REMARK INTER + INTRA:         -10.155
REMARK INTER:                  -9.713
REMARK INTRA:                  -0.442
REMARK UNBOUND:                -0.488
REMARK  Name = 
REMARK  9 active torsions:
REMARK  status: ('A' for Active; 'I' for Inactive)
REMARK    1  A    between atoms: C_1  and  C_2
REMARK    2  A    between atoms: C_2  and  C_3
REMARK    3  A    between atoms: C_3  and  C_4
REMARK    4  A    between atoms: C_16  and  C_17
REMARK    5  A    between atoms: C_16  and  C_18
REMARK    6  A    between atoms: C_22  and  C_23
REMARK    7  A    between atoms: C_23  and  C_24
REMARK    8  A    between atoms: C_25  and  C_26
REMARK    9  A    between atoms: C_27  and  O_28
REMARK                            x       y       z     vdW  Elec       q    Type
REMARK                         _______ _______ _______ _____ _____    ______ ____
ROOT
ATOM      1  C   UNL     1      23.496   0.611  52.911  0.00  0.00    +0.000 A 
ATOM      2  C   UNL     1      23.217  -0.603  53.441  0.00  0.00    +0.000 A 
ATOM      3  C   UNL     1      22.230  -0.775  54.512  0.00  0.00    +0.000 A 
ATOM      4  O   UNL     1      22.262  -1.727  55.272  0.00  0.00    +0.000 OA
ATOM      5  O   UNL     1      21.321   0.238  54.633  0.00  0.00    +0.000 OA
ATOM      6  C   UNL     1      21.256   1.068  53.512  0.00  0.00    +0.000 A 
ATOM      7  C   UNL     1      20.062   1.126  52.840  0.00  0.00    +0.000 A 
ATOM      8  C   UNL     1      19.836   2.218  52.033  0.00  0.00    +0.000 A 
ATOM      9  C   UNL     1      20.876   3.149  51.839  0.00  0.00    +0.000 A 
ATOM     10  C   UNL     1      22.208   2.791  52.182  0.00  0.00    +0.000 A 
ATOM     11  C   UNL     1      22.407   1.635  52.962  0.00  0.00    +0.000 A 
ATOM     12  O   UNL     1      23.285   3.548  51.780  0.00  0.00    +0.000 OA
ATOM     13  C   UNL     1      23.064   4.721  50.943  0.00  0.00    +0.000 C 
ATOM     14  C   UNL     1      23.912   5.874  51.505  0.00  0.00    +0.000 C 
ATOM     15  C   UNL     1      23.547   4.393  49.523  0.00  0.00    +0.000 C 
ATOM     16  C   UNL     1      21.635   5.190  50.837  0.00  0.00    +0.000 C 
ATOM     17  C   UNL     1      20.595   4.441  51.219  0.00  0.00    +0.000 C 
ATOM     18  O   UNL     1      18.624   2.413  51.438  0.00  0.00    +0.000 OA
ATOM     19  C   UNL     1      17.726   1.298  51.282  0.00  0.00    +0.000 C 
ATOM     20  C   UNL     1      17.863   0.143  52.292  0.00  0.00    +0.000 C 
ATOM     21  C   UNL     1      17.173  -1.150  51.816  0.00  0.00    +0.000 C 
ATOM     22  C   UNL     1      19.310  -0.147  52.589  0.00  0.00    +0.000 C 
ENDROOT
BRANCH  19  23
ATOM     23  C   UNL     1      16.305   1.865  51.428  0.00  0.00    +0.000 C 
ATOM     24  C   UNL     1      16.280   3.329  51.822  0.00  0.00    +0.000 C 
ENDBRANCH  19  23
BRANCH  22  25
ATOM     25  O   UNL     1      19.357  -1.103  53.639  0.00  0.00    +0.000 OA
ATOM     26  H   UNL     1      20.118  -0.918  54.211  0.00  0.00    +0.000 HD
ENDBRANCH  22  25
BRANCH   1  27
ATOM     27  C   UNL     1      24.754   0.697  52.095  0.00  0.00    +0.000 C 
BRANCH  27  29
ATOM     28  C   UNL     1      26.799  -0.791  52.311  0.00  0.00    +0.000 C 
ATOM     29  C   UNL     1      25.974   0.320  52.950  0.00  0.00    +0.000 C 
ENDBRANCH  27  29
ENDBRANCH   1  27
TORSDOF 4
ENDMDL
MODEL 6
REMARK VINA RESULT:    -7.925      1.899      6.018
REMARK INTER + INTRA:         -10.034
REMARK INTER:                  -9.558
REMARK INTRA:                  -0.476
REMARK UNBOUND:                -0.488
REMARK  Name = 
REMARK  9 active torsions:
REMARK  status: ('A' for Active; 'I' for Inactive)
REMARK    1  A    between atoms: C_1  and  C_2
REMARK    2  A    between atoms: C_2  and  C_3
REMARK    3  A    between atoms: C_3  and  C_4
REMARK    4  A    between atoms: C_16  and  C_17
REMARK    5  A    between atoms: C_16  and  C_18
REMARK    6  A    between atoms: C_22  and  C_23
REMARK    7  A    between atoms: C_23  and  C_24
REMARK    8  A    between atoms: C_25  and  C_26
REMARK    9  A    between atoms: C_27  and  O_28
REMARK                            x       y       z     vdW  Elec       q    Type
REMARK                         _______ _______ _______ _____ _____    ______ ____
ROOT
ATOM      1  C   UNL     1      21.835   5.543  50.515  0.00  0.00    +0.000 A 
ATOM      2  C   UNL     1      20.831   4.854  51.107  0.00  0.00    +0.000 A 
ATOM      3  C   UNL     1      20.480   3.489  50.701  0.00  0.00    +0.000 A 
ATOM      4  O   UNL     1      19.370   3.024  50.896  0.00  0.00    +0.000 OA
ATOM      5  O   UNL     1      21.460   2.811  50.034  0.00  0.00    +0.000 OA
ATOM      6  C   UNL     1      22.727   3.380  50.171  0.00  0.00    +0.000 A 
ATOM      7  C   UNL     1      23.696   2.622  50.775  0.00  0.00    +0.000 A 
ATOM      8  C   UNL     1      25.010   2.961  50.541  0.00  0.00    +0.000 A 
ATOM      9  C   UNL     1      25.292   4.129  49.805  0.00  0.00    +0.000 A 
ATOM     10  C   UNL     1      24.271   5.098  49.614  0.00  0.00    +0.000 A 
ATOM     11  C   UNL     1      22.943   4.736  49.917  0.00  0.00    +0.000 A 
ATOM     12  O   UNL     1      24.551   6.359  49.136  0.00  0.00    +0.000 OA
ATOM     13  C   UNL     1      25.935   6.728  48.861  0.00  0.00    +0.000 C 
ATOM     14  C   UNL     1      25.976   7.441  47.500  0.00  0.00    +0.000 C 
ATOM     15  C   UNL     1      26.392   7.709  49.951  0.00  0.00    +0.000 C 
ATOM     16  C   UNL     1      26.923   5.591  48.832  0.00  0.00    +0.000 C 
ATOM     17  C   UNL     1      26.644   4.374  49.311  0.00  0.00    +0.000 C 
ATOM     18  O   UNL     1      26.029   2.177  50.997  0.00  0.00    +0.000 OA
ATOM     19  C   UNL     1      25.783   1.253  52.073  0.00  0.00    +0.000 C 
ATOM     20  C   UNL     1      24.341   0.737  52.235  0.00  0.00    +0.000 C 
ATOM     21  C   UNL     1      24.086   0.103  53.616  0.00  0.00    +0.000 C 
ATOM     22  C   UNL     1      23.342   1.840  52.004  0.00  0.00    +0.000 C 
ENDROOT
BRANCH  19  23
ATOM     23  C   UNL     1      26.676   0.031  51.806  0.00  0.00    +0.000 C 
ATOM     24  C   UNL     1      27.647  -0.260  52.934  0.00  0.00    +0.000 C 
ENDBRANCH  19  23
BRANCH  22  25
ATOM     25  O   UNL     1      22.045   1.262  52.010  0.00  0.00    +0.000 OA
ATOM     26  H   UNL     1      21.402   1.913  52.333  0.00  0.00    +0.000 HD
ENDBRANCH  22  25
BRANCH   1  27
ATOM     27  C   UNL     1      21.855   7.022  50.770  0.00  0.00    +0.000 C 
BRANCH  27  29
ATOM     28  C   UNL     1      22.296   8.946  49.174  0.00  0.00    +0.000 C 
ATOM     29  C   UNL     1      21.371   7.787  49.528  0.00  0.00    +0.000 C 
ENDBRANCH  27  29
ENDBRANCH   1  27
TORSDOF 4
ENDMDL
MODEL 7
REMARK VINA RESULT:    -7.616      1.780      5.518
REMARK INTER + INTRA:          -9.662
REMARK INTER:                  -9.355
REMARK INTRA:                  -0.307
REMARK UNBOUND:                -0.488
REMARK  Name = 
REMARK  9 active torsions:
REMARK  status: ('A' for Active; 'I' for Inactive)
REMARK    1  A    between atoms: C_1  and  C_2
REMARK    2  A    between atoms: C_2  and  C_3
REMARK    3  A    between atoms: C_3  and  C_4
REMARK    4  A    between atoms: C_16  and  C_17
REMARK    5  A    between atoms: C_16  and  C_18
REMARK    6  A    between atoms: C_22  and  C_23
REMARK    7  A    between atoms: C_23  and  C_24
REMARK    8  A    between atoms: C_25  and  C_26
REMARK    9  A    between atoms: C_27  and  O_28
REMARK                            x       y       z     vdW  Elec       q    Type
REMARK                         _______ _______ _______ _____ _____    ______ ____
ROOT
ATOM      1  C   UNL     1      21.024   1.278  52.647  0.00  0.00    +0.000 A 
ATOM      2  C   UNL     1      20.811   0.408  53.662  0.00  0.00    +0.000 A 
ATOM      3  C   UNL     1      21.422  -0.925  53.683  0.00  0.00    +0.000 A 
ATOM      4  O   UNL     1      20.939  -1.846  54.320  0.00  0.00    +0.000 OA
ATOM      5  O   UNL     1      22.524  -1.073  52.890  0.00  0.00    +0.000 OA
ATOM      6  C   UNL     1      23.089   0.138  52.487  0.00  0.00    +0.000 A 
ATOM      7  C   UNL     1      24.375   0.397  52.886  0.00  0.00    +0.000 A 
ATOM      8  C   UNL     1      25.089   1.334  52.173  0.00  0.00    +0.000 A 
ATOM      9  C   UNL     1      24.434   2.064  51.160  0.00  0.00    +0.000 A 
ATOM     10  C   UNL     1      23.014   2.077  51.115  0.00  0.00    +0.000 A 
ATOM     11  C   UNL     1      22.313   1.140  51.902  0.00  0.00    +0.000 A 
ATOM     12  O   UNL     1      22.324   2.967  50.322  0.00  0.00    +0.000 OA
ATOM     13  C   UNL     1      23.064   3.952  49.543  0.00  0.00    +0.000 C 
ATOM     14  C   UNL     1      22.470   3.982  48.125  0.00  0.00    +0.000 C 
ATOM     15  C   UNL     1      22.863   5.327  50.196  0.00  0.00    +0.000 C 
ATOM     16  C   UNL     1      24.549   3.718  49.430  0.00  0.00    +0.000 C 
ATOM     17  C   UNL     1      25.211   2.861  50.215  0.00  0.00    +0.000 C 
ATOM     18  O   UNL     1      26.412   1.550  52.425  0.00  0.00    +0.000 OA
ATOM     19  C   UNL     1      26.966   1.141  53.689  0.00  0.00    +0.000 C 
ATOM     20  C   UNL     1      26.269  -0.025  54.414  0.00  0.00    +0.000 C 
ATOM     21  C   UNL     1      26.656  -0.119  55.903  0.00  0.00    +0.000 C 
ATOM     22  C   UNL     1      24.772   0.083  54.297  0.00  0.00    +0.000 C 
ENDROOT
BRANCH  19  23
ATOM     23  C   UNL     1      28.412   0.703  53.406  0.00  0.00    +0.000 C 
ATOM     24  C   UNL     1      29.441   1.472  54.211  0.00  0.00    +0.000 C 
ENDBRANCH  19  23
BRANCH  22  25
ATOM     25  O   UNL     1      24.206  -1.100  54.843  0.00  0.00    +0.000 OA
ATOM     26  H   UNL     1      24.915  -1.710  55.098  0.00  0.00    +0.000 HD
ENDBRANCH  22  25
BRANCH   1  27
ATOM     27  C   UNL     1      20.076   2.440  52.569  0.00  0.00    +0.000 C 
BRANCH  27  29
ATOM     28  C   UNL     1      18.233   1.149  51.395  0.00  0.00    +0.000 C 
ATOM     29  C   UNL     1      19.194   2.329  51.316  0.00  0.00    +0.000 C 
ENDBRANCH  27  29
ENDBRANCH   1  27
TORSDOF 4
ENDMDL
MODEL 8
REMARK VINA RESULT:    -7.176      1.881      6.801
REMARK INTER + INTRA:          -9.132
REMARK INTER:                  -8.587
REMARK INTRA:                  -0.544
REMARK UNBOUND:                -0.488
REMARK  Name = 
REMARK  9 active torsions:
REMARK  status: ('A' for Active; 'I' for Inactive)
REMARK    1  A    between atoms: C_1  and  C_2
REMARK    2  A    between atoms: C_2  and  C_3
REMARK    3  A    between atoms: C_3  and  C_4
REMARK    4  A    between atoms: C_16  and  C_17
REMARK    5  A    between atoms: C_16  and  C_18
REMARK    6  A    between atoms: C_22  and  C_23
REMARK    7  A    between atoms: C_23  and  C_24
REMARK    8  A    between atoms: C_25  and  C_26
REMARK    9  A    between atoms: C_27  and  O_28
REMARK                            x       y       z     vdW  Elec       q    Type
REMARK                         _______ _______ _______ _____ _____    ______ ____
ROOT
ATOM      1  C   UNL     1      22.502   4.871  49.421  0.00  0.00    +0.000 A 
ATOM      2  C   UNL     1      23.812   5.167  49.253  0.00  0.00    +0.000 A 
ATOM      3  C   UNL     1      24.696   5.456  50.387  0.00  0.00    +0.000 A 
ATOM      4  O   UNL     1      25.714   6.114  50.260  0.00  0.00    +0.000 OA
ATOM      5  O   UNL     1      24.261   4.991  51.596  0.00  0.00    +0.000 OA
ATOM      6  C   UNL     1      23.258   4.025  51.496  0.00  0.00    +0.000 A 
ATOM      7  C   UNL     1      23.533   2.778  51.994  0.00  0.00    +0.000 A 
ATOM      8  C   UNL     1      22.466   1.963  52.301  0.00  0.00    +0.000 A 
ATOM      9  C   UNL     1      21.164   2.394  51.977  0.00  0.00    +0.000 A 
ATOM     10  C   UNL     1      20.990   3.465  51.059  0.00  0.00    +0.000 A 
ATOM     11  C   UNL     1      22.116   4.244  50.722  0.00  0.00    +0.000 A 
ATOM     12  O   UNL     1      19.761   3.754  50.511  0.00  0.00    +0.000 OA
ATOM     13  C   UNL     1      18.615   2.916  50.842  0.00  0.00    +0.000 C 
ATOM     14  C   UNL     1      17.424   3.838  51.152  0.00  0.00    +0.000 C 
ATOM     15  C   UNL     1      18.276   2.063  49.611  0.00  0.00    +0.000 C 
ATOM     16  C   UNL     1      18.804   1.977  52.005  0.00  0.00    +0.000 C 
ATOM     17  C   UNL     1      20.005   1.693  52.521  0.00  0.00    +0.000 C 
ATOM     18  O   UNL     1      22.654   0.764  52.923  0.00  0.00    +0.000 OA
ATOM     19  C   UNL     1      23.951   0.139  52.875  0.00  0.00    +0.000 C 
ATOM     20  C   UNL     1      25.168   1.066  52.701  0.00  0.00    +0.000 C 
ATOM     21  C   UNL     1      26.434   0.311  52.254  0.00  0.00    +0.000 C 
ATOM     22  C   UNL     1      24.873   2.167  51.716  0.00  0.00    +0.000 C 
ENDROOT
BRANCH  19  23
ATOM     23  C   UNL     1      24.126  -0.595  54.214  0.00  0.00    +0.000 C 
ATOM     24  C   UNL     1      22.812  -1.016  54.843  0.00  0.00    +0.000 C 
ENDBRANCH  19  23
BRANCH  22  25
ATOM     25  O   UNL     1      25.971   3.067  51.727  0.00  0.00    +0.000 OA
ATOM     26  H   UNL     1      25.642   3.979  51.693  0.00  0.00    +0.000 HD
ENDBRANCH  22  25
BRANCH   1  27
ATOM     27  C   UNL     1      21.648   4.950  48.188  0.00  0.00    +0.000 C 
BRANCH  27  29
ATOM     28  C   UNL     1      20.277   6.932  48.985  0.00  0.00    +0.000 C 
ATOM     29  C   UNL     1      21.230   6.404  47.919  0.00  0.00    +0.000 C 
ENDBRANCH  27  29
ENDBRANCH   1  27
TORSDOF 4
ENDMDL
MODEL 9
REMARK VINA RESULT:    -6.896      4.659      9.113
REMARK INTER + INTRA:          -8.794
REMARK INTER:                  -8.397
REMARK INTRA:                  -0.398
REMARK UNBOUND:                -0.488
REMARK  Name = 
REMARK  9 active torsions:
REMARK  status: ('A' for Active; 'I' for Inactive)
REMARK    1  A    between atoms: C_1  and  C_2
REMARK    2  A    between atoms: C_2  and  C_3
REMARK    3  A    between atoms: C_3  and  C_4
REMARK    4  A    between atoms: C_16  and  C_17
REMARK    5  A    between atoms: C_16  and  C_18
REMARK    6  A    between atoms: C_22  and  C_23
REMARK    7  A    between atoms: C_23  and  C_24
REMARK    8  A    between atoms: C_25  and  C_26
REMARK    9  A    between atoms: C_27  and  O_28
REMARK                            x       y       z     vdW  Elec       q    Type
REMARK                         _______ _______ _______ _____ _____    ______ ____
ROOT
ATOM      1  C   UNL     1      27.172   5.898  48.514  0.00  0.00    +0.000 A 
ATOM      2  C   UNL     1      28.494   5.617  48.594  0.00  0.00    +0.000 A 
ATOM      3  C   UNL     1      29.458   6.129  47.615  0.00  0.00    +0.000 A 
ATOM      4  O   UNL     1      30.525   5.577  47.411  0.00  0.00    +0.000 OA
ATOM      5  O   UNL     1      29.044   7.223  46.908  0.00  0.00    +0.000 OA
ATOM      6  C   UNL     1      27.951   7.877  47.480  0.00  0.00    +0.000 A 
ATOM      7  C   UNL     1      28.132   9.175  47.880  0.00  0.00    +0.000 A 
ATOM      8  C   UNL     1      27.011   9.959  48.033  0.00  0.00    +0.000 A 
ATOM      9  C   UNL     1      25.740   9.366  47.895  0.00  0.00    +0.000 A 
ATOM     10  C   UNL     1      25.621   7.950  47.941  0.00  0.00    +0.000 A 
ATOM     11  C   UNL     1      26.796   7.179  47.839  0.00  0.00    +0.000 A 
ATOM     12  O   UNL     1      24.397   7.332  48.072  0.00  0.00    +0.000 OA
ATOM     13  C   UNL     1      23.196   8.146  48.213  0.00  0.00    +0.000 C 
ATOM     14  C   UNL     1      22.115   7.564  47.287  0.00  0.00    +0.000 C 
ATOM     15  C   UNL     1      22.715   8.041  49.667  0.00  0.00    +0.000 C 
ATOM     16  C   UNL     1      23.356   9.610  47.895  0.00  0.00    +0.000 C 
ATOM     17  C   UNL     1      24.550  10.204  47.783  0.00  0.00    +0.000 C 
ATOM     18  O   UNL     1      27.117  11.293  48.298  0.00  0.00    +0.000 OA
ATOM     19  C   UNL     1      28.345  11.808  48.847  0.00  0.00    +0.000 C 
ATOM     20  C   UNL     1      29.633  11.024  48.536  0.00  0.00    +0.000 C 
ATOM     21  C   UNL     1      30.798  11.394  49.474  0.00  0.00    +0.000 C 
ATOM     22  C   UNL     1      29.393   9.539  48.605  0.00  0.00    +0.000 C 
ENDROOT
BRANCH  19  23
ATOM     23  C   UNL     1      28.519  13.220  48.264  0.00  0.00    +0.000 C 
ATOM     24  C   UNL     1      27.214  13.984  48.143  0.00  0.00    +0.000 C 
ENDBRANCH  19  23
BRANCH  22  25
ATOM     25  O   UNL     1      30.570   8.886  48.153  0.00  0.00    +0.000 OA
ATOM     26  H   UNL     1      31.347   9.413  48.398  0.00  0.00    +0.000 HD
ENDBRANCH  22  25
BRANCH   1  27
ATOM     27  C   UNL     1      26.266   5.037  49.347  0.00  0.00    +0.000 C 
BRANCH  27  29
ATOM     28  C   UNL     1      26.417   2.896  50.702  0.00  0.00    +0.000 C 
ATOM     29  C   UNL     1      26.799   3.597  49.404  0.00  0.00    +0.000 C 
ENDBRANCH  27  29
ENDBRANCH   1  27
TORSDOF 4
ENDMDL
