MODEL 1
REMARK VINA RESULT:    -8.120      0.000      0.000
REMARK INTER + INTRA:         -11.037
REMARK INTER:                 -10.493
REMARK INTRA:                  -0.543
REMARK UNBOUND:                -0.543
REMARK  Name = 
REMARK  7 active torsions:
REMARK  status: ('A' for Active; 'I' for Inactive)
REMARK    1  A    between atoms: C_1  and  C_2
REMARK    2  A    between atoms: C_2  and  N_3
REMARK    3  A    between atoms: N_3  and  C_4
REMARK    4  A    between atoms: C_9  and  S_10
REMARK    5  A    between atoms: S_10  and  N_13
REMARK    6  A    between atoms: C_20  and  O_21
REMARK    7  A    between atoms: O_21  and  C_22
REMARK                            x       y       z     vdW  Elec       q    Type
REMARK                         _______ _______ _______ _____ _____    ______ ____
ROOT
ATOM      1  C   UNL     1      26.071  -0.116  53.647  0.00  0.00    +0.000 A 
ATOM      2  C   UNL     1      27.040   0.900  53.628  0.00  0.00    +0.000 A 
ATOM      3  C   UNL     1      26.679   2.233  53.615  0.00  0.00    +0.000 A 
ATOM      4  C   UNL     1      25.356   2.574  53.414  0.00  0.00    +0.000 A 
ATOM      5  C   UNL     1      24.361   1.614  53.163  0.00  0.00    +0.000 A 
ATOM      6  C   UNL     1      23.049   1.954  52.724  0.00  0.00    +0.000 A 
ATOM      7  C   UNL     1      22.012   1.020  52.833  0.00  0.00    +0.000 A 
ATOM      8  C   UNL     1      22.291  -0.274  53.267  0.00  0.00    +0.000 A 
ATOM      9  C   UNL     1      23.616  -0.667  53.498  0.00  0.00    +0.000 A 
ATOM     10  C   UNL     1      24.693   0.248  53.427  0.00  0.00    +0.000 A 
ENDROOT
BRANCH   6  11
ATOM     11  S   UNL     1      22.655   3.589  52.071  0.00  0.00    +0.000 S 
ATOM     12  O   UNL     1      21.209   3.693  52.126  0.00  0.00    +0.000 OA
ATOM     13  O   UNL     1      23.476   4.617  52.666  0.00  0.00    +0.000 OA
BRANCH  11  14
ATOM     14  N   UNL     1      23.022   3.585  50.419  0.00  0.00    +0.000 N 
ATOM     15  C   UNL     1      24.286   4.135  50.036  0.00  0.00    +0.000 A 
ATOM     16  N   UNL     1      25.240   3.186  49.907  0.00  0.00    +0.000 NA
ATOM     17  C   UNL     1      26.430   3.625  49.420  0.00  0.00    +0.000 A 
ATOM     18  C   UNL     1      26.668   4.958  49.093  0.00  0.00    +0.000 A 
ATOM     19 BR   UNL     1      28.347   5.472  48.383  0.00  0.00    +0.000 Br
ATOM     20  N   UNL     1      25.726   5.907  49.232  0.00  0.00    +0.000 NA
ATOM     21  C   UNL     1      24.525   5.499  49.720  0.00  0.00    +0.000 A 
ATOM     22  H   UNL     1      22.395   3.221  49.753  0.00  0.00    +0.000 HD
BRANCH  21  23
ATOM     23  O   UNL     1      23.513   6.424  49.831  0.00  0.00    +0.000 OA
ATOM     24  C   UNL     1      23.898   7.555  50.620  0.00  0.00    +0.000 C 
ENDBRANCH  21  23
ENDBRANCH  11  14
ENDBRANCH   6  11
BRANCH   1  25
ATOM     25  N   UNL     1      26.485  -1.470  53.750  0.00  0.00    +0.000 N 
ATOM     26  H   UNL     1      26.268  -2.013  54.542  0.00  0.00    +0.000 HD
BRANCH  25  28
ATOM     27  C   UNL     1      28.676  -2.348  53.028  0.00  0.00    +0.000 C 
ATOM     28  C   UNL     1      27.250  -2.025  52.628  0.00  0.00    +0.000 C 
ENDBRANCH  25  28
ENDBRANCH   1  25
TORSDOF 5
ENDMDL
MODEL 2
REMARK VINA RESULT:    -7.983      2.995      4.947
REMARK INTER + INTRA:         -10.860
REMARK INTER:                 -10.742
REMARK INTRA:                  -0.118
REMARK UNBOUND:                -0.543
REMARK  Name = 
REMARK  7 active torsions:
REMARK  status: ('A' for Active; 'I' for Inactive)
REMARK    1  A    between atoms: C_1  and  C_2
REMARK    2  A    between atoms: C_2  and  N_3
REMARK    3  A    between atoms: N_3  and  C_4
REMARK    4  A    between atoms: C_9  and  S_10
REMARK    5  A    between atoms: S_10  and  N_13
REMARK    6  A    between atoms: C_20  and  O_21
REMARK    7  A    between atoms: O_21  and  C_22
REMARK                            x       y       z     vdW  Elec       q    Type
REMARK                         _______ _______ _______ _____ _____    ______ ____
ROOT
ATOM      1  C   UNL     1      19.804  -0.526  53.180  0.00  0.00    +0.000 A 
ATOM      2  C   UNL     1      19.530   0.162  51.986  0.00  0.00    +0.000 A 
ATOM      3  C   UNL     1      20.546   0.546  51.134  0.00  0.00    +0.000 A 
ATOM      4  C   UNL     1      21.858   0.435  51.551  0.00  0.00    +0.000 A 
ATOM      5  C   UNL     1      22.203  -0.003  52.841  0.00  0.00    +0.000 A 
ATOM      6  C   UNL     1      23.524   0.099  53.366  0.00  0.00    +0.000 A 
ATOM      7  C   UNL     1      23.892  -0.659  54.484  0.00  0.00    +0.000 A 
ATOM      8  C   UNL     1      22.933  -1.425  55.145  0.00  0.00    +0.000 A 
ATOM      9  C   UNL     1      21.589  -1.358  54.753  0.00  0.00    +0.000 A 
ATOM     10  C   UNL     1      21.175  -0.629  53.613  0.00  0.00    +0.000 A 
ENDROOT
BRANCH   6  11
ATOM     11  S   UNL     1      24.778   1.144  52.599  0.00  0.00    +0.000 S 
ATOM     12  O   UNL     1      25.023   2.218  53.543  0.00  0.00    +0.000 OA
ATOM     13  O   UNL     1      25.884   0.368  52.088  0.00  0.00    +0.000 OA
BRANCH  11  14
ATOM     14  N   UNL     1      24.071   1.901  51.261  0.00  0.00    +0.000 N 
ATOM     15  C   UNL     1      24.243   3.316  51.152  0.00  0.00    +0.000 A 
ATOM     16  N   UNL     1      25.289   3.646  50.362  0.00  0.00    +0.000 NA
ATOM     17  C   UNL     1      25.428   4.975  50.112  0.00  0.00    +0.000 A 
ATOM     18  C   UNL     1      24.574   5.938  50.642  0.00  0.00    +0.000 A 
ATOM     19 BR   UNL     1      24.822   7.764  50.208  0.00  0.00    +0.000 Br
ATOM     20  N   UNL     1      23.541   5.615  51.439  0.00  0.00    +0.000 NA
ATOM     21  C   UNL     1      23.377   4.293  51.711  0.00  0.00    +0.000 A 
ATOM     22  H   UNL     1      23.564   1.389  50.589  0.00  0.00    +0.000 HD
BRANCH  21  23
ATOM     23  O   UNL     1      22.302   3.910  52.479  0.00  0.00    +0.000 OA
ATOM     24  C   UNL     1      21.054   4.142  51.819  0.00  0.00    +0.000 C 
ENDBRANCH  21  23
ENDBRANCH  11  14
ENDBRANCH   6  11
BRANCH   1  25
ATOM     25  N   UNL     1      18.724  -0.980  53.983  0.00  0.00    +0.000 N 
ATOM     26  H   UNL     1      18.729  -0.866  54.960  0.00  0.00    +0.000 HD
BRANCH  25  28
ATOM     27  C   UNL     1      17.510  -3.101  53.634  0.00  0.00    +0.000 C 
ATOM     28  C   UNL     1      17.601  -1.626  53.294  0.00  0.00    +0.000 C 
ENDBRANCH  25  28
ENDBRANCH   1  25
TORSDOF 5
ENDMDL
MODEL 3
REMARK VINA RESULT:    -7.890      3.923      6.131
REMARK INTER + INTRA:         -10.740
REMARK INTER:                 -10.368
REMARK INTRA:                  -0.372
REMARK UNBOUND:                -0.543
REMARK  Name = 
REMARK  7 active torsions:
REMARK  status: ('A' for Active; 'I' for Inactive)
REMARK    1  A    between atoms: C_1  and  C_2
REMARK    2  A    between atoms: C_2  and  N_3
REMARK    3  A    between atoms: N_3  and  C_4
REMARK    4  A    between atoms: C_9  and  S_10
REMARK    5  A    between atoms: S_10  and  N_13
REMARK    6  A    between atoms: C_20  and  O_21
REMARK    7  A    between atoms: O_21  and  C_22
REMARK                            x       y       z     vdW  Elec       q    Type
REMARK                         _______ _______ _______ _____ _____    ______ ____
ROOT
ATOM      1  C   UNL     1      26.928   0.866  53.359  0.00  0.00    +0.000 A 
ATOM      2  C   UNL     1      26.206   0.002  54.199  0.00  0.00    +0.000 A 
ATOM      3  C   UNL     1      24.904  -0.354  53.909  0.00  0.00    +0.000 A 
ATOM      4  C   UNL     1      24.233   0.299  52.895  0.00  0.00    +0.000 A 
ATOM      5  C   UNL     1      24.806   1.362  52.176  0.00  0.00    +0.000 A 
ATOM      6  C   UNL     1      24.057   2.196  51.297  0.00  0.00    +0.000 A 
ATOM      7  C   UNL     1      24.719   2.988  50.352  0.00  0.00    +0.000 A 
ATOM      8  C   UNL     1      26.112   3.042  50.349  0.00  0.00    +0.000 A 
ATOM      9  C   UNL     1      26.841   2.385  51.350  0.00  0.00    +0.000 A 
ATOM     10  C   UNL     1      26.218   1.551  52.308  0.00  0.00    +0.000 A 
ENDROOT
BRANCH   6  11
ATOM     11  S   UNL     1      22.254   2.230  51.319  0.00  0.00    +0.000 S 
ATOM     12  O   UNL     1      21.885   2.523  52.690  0.00  0.00    +0.000 OA
ATOM     13  O   UNL     1      21.720   3.031  50.241  0.00  0.00    +0.000 OA
BRANCH  11  14
ATOM     14  N   UNL     1      21.706   0.651  51.053  0.00  0.00    +0.000 N 
ATOM     15  C   UNL     1      20.401   0.329  51.542  0.00  0.00    +0.000 A 
ATOM     16  N   UNL     1      19.450   0.460  50.589  0.00  0.00    +0.000 NA
ATOM     17  C   UNL     1      18.208   0.044  50.952  0.00  0.00    +0.000 A 
ATOM     18  C   UNL     1      17.919  -0.463  52.216  0.00  0.00    +0.000 A 
ATOM     19 BR   UNL     1      16.166  -1.055  52.620  0.00  0.00    +0.000 Br
ATOM     20  N   UNL     1      18.859  -0.583  53.170  0.00  0.00    +0.000 NA
ATOM     21  C   UNL     1      20.111  -0.172  52.839  0.00  0.00    +0.000 A 
ATOM     22  H   UNL     1      22.260  -0.014  50.584  0.00  0.00    +0.000 HD
BRANCH  21  23
ATOM     23  O   UNL     1      21.118  -0.323  53.764  0.00  0.00    +0.000 OA
ATOM     24  C   UNL     1      21.187  -1.658  54.276  0.00  0.00    +0.000 C 
ENDBRANCH  21  23
ENDBRANCH  11  14
ENDBRANCH   6  11
BRANCH   1  25
ATOM     25  N   UNL     1      28.292   1.135  53.646  0.00  0.00    +0.000 N 
ATOM     26  H   UNL     1      28.737   1.944  53.307  0.00  0.00    +0.000 HD
BRANCH  25  28
ATOM     27  C   UNL     1      29.850  -0.780  53.625  0.00  0.00    +0.000 C 
ATOM     28  C   UNL     1      29.010   0.157  54.471  0.00  0.00    +0.000 C 
ENDBRANCH  25  28
ENDBRANCH   1  25
TORSDOF 5
ENDMDL
MODEL 4
REMARK VINA RESULT:    -7.886      3.269      4.173
REMARK INTER + INTRA:         -10.734
REMARK INTER:                 -10.276
REMARK INTRA:                  -0.458
REMARK UNBOUND:                -0.543
REMARK  Name = 
REMARK  7 active torsions:
REMARK  status: ('A' for Active; 'I' for Inactive)
REMARK    1  A    between atoms: C_1  and  C_2
REMARK    2  A    between atoms: C_2  and  N_3
REMARK    3  A    between atoms: N_3  and  C_4
REMARK    4  A    between atoms: C_9  and  S_10
REMARK    5  A    between atoms: S_10  and  N_13
REMARK    6  A    between atoms: C_20  and  O_21
REMARK    7  A    between atoms: O_21  and  C_22
REMARK                            x       y       z     vdW  Elec       q    Type
REMARK                         _______ _______ _______ _____ _____    ______ ____
ROOT
ATOM      1  C   UNL     1      26.229  -0.168  53.377  0.00  0.00    +0.000 A 
ATOM      2  C   UNL     1      26.359   0.756  52.328  0.00  0.00    +0.000 A 
ATOM      3  C   UNL     1      25.312   1.579  51.966  0.00  0.00    +0.000 A 
ATOM      4  C   UNL     1      24.059   1.357  52.503  0.00  0.00    +0.000 A 
ATOM      5  C   UNL     1      23.791   0.282  53.367  0.00  0.00    +0.000 A 
ATOM      6  C   UNL     1      22.471  -0.101  53.740  0.00  0.00    +0.000 A 
ATOM      7  C   UNL     1      22.270  -0.923  54.856  0.00  0.00    +0.000 A 
ATOM      8  C   UNL     1      23.369  -1.453  55.529  0.00  0.00    +0.000 A 
ATOM      9  C   UNL     1      24.663  -1.246  55.033  0.00  0.00    +0.000 A 
ATOM     10  C   UNL     1      24.916  -0.401  53.926  0.00  0.00    +0.000 A 
ENDROOT
BRANCH   6  11
ATOM     11  S   UNL     1      21.017   0.487  52.848  0.00  0.00    +0.000 S 
ATOM     12  O   UNL     1      19.915  -0.333  53.312  0.00  0.00    +0.000 OA
ATOM     13  O   UNL     1      20.911   1.927  52.886  0.00  0.00    +0.000 OA
BRANCH  11  14
ATOM     14  N   UNL     1      21.209   0.069  51.220  0.00  0.00    +0.000 N 
ATOM     15  C   UNL     1      21.127   1.130  50.265  0.00  0.00    +0.000 A 
ATOM     16  N   UNL     1      22.344   1.618  49.935  0.00  0.00    +0.000 NA
ATOM     17  C   UNL     1      22.346   2.540  48.937  0.00  0.00    +0.000 A 
ATOM     18  C   UNL     1      21.183   2.973  48.305  0.00  0.00    +0.000 A 
ATOM     19 BR   UNL     1      21.286   4.234  46.895  0.00  0.00    +0.000 Br
ATOM     20  N   UNL     1      19.969   2.501  48.639  0.00  0.00    +0.000 NA
ATOM     21  C   UNL     1      19.934   1.579  49.638  0.00  0.00    +0.000 A 
ATOM     22  H   UNL     1      21.370  -0.863  50.943  0.00  0.00    +0.000 HD
BRANCH  21  23
ATOM     23  O   UNL     1      18.721   1.028  49.979  0.00  0.00    +0.000 OA
ATOM     24  C   UNL     1      17.822   1.995  50.531  0.00  0.00    +0.000 C 
ENDBRANCH  21  23
ENDBRANCH  11  14
ENDBRANCH   6  11
BRANCH   1  25
ATOM     25  N   UNL     1      27.358  -0.932  53.775  0.00  0.00    +0.000 N 
ATOM     26  H   UNL     1      27.374  -1.911  53.679  0.00  0.00    +0.000 HD
BRANCH  25  28
ATOM     27  C   UNL     1      29.798  -0.580  53.646  0.00  0.00    +0.000 C 
ATOM     28  C   UNL     1      28.500  -0.200  54.333  0.00  0.00    +0.000 C 
ENDBRANCH  25  28
ENDBRANCH   1  25
TORSDOF 5
ENDMDL
MODEL 5
REMARK VINA RESULT:    -7.848      3.558      5.576
REMARK INTER + INTRA:         -10.686
REMARK INTER:                 -10.072
REMARK INTRA:                  -0.614
REMARK UNBOUND:                -0.543
REMARK  Name = 
REMARK  7 active torsions:
REMARK  status: ('A' for Active; 'I' for Inactive)
REMARK    1  A    between atoms: C_1  and  C_2
REMARK    2  A    between atoms: C_2  and  N_3
REMARK    3  A    between atoms: N_3  and  C_4
REMARK    4  A    between atoms: C_9  and  S_10
REMARK    5  A    between atoms: S_10  and  N_13
REMARK    6  A    between atoms: C_20  and  O_21
REMARK    7  A    between atoms: O_21  and  C_22
REMARK                            x       y       z     vdW  Elec       q    Type
REMARK                         _______ _______ _______ _____ _____    ______ ____
ROOT
ATOM      1  C   UNL     1      19.016  -0.689  53.037  0.00  0.00    +0.000 A 
ATOM      2  C   UNL     1      18.578   0.018  51.906  0.00  0.00    +0.000 A 
ATOM      3  C   UNL     1      19.475   0.521  50.985  0.00  0.00    +0.000 A 
ATOM      4  C   UNL     1      20.825   0.508  51.278  0.00  0.00    +0.000 A 
ATOM      5  C   UNL     1      21.323   0.052  52.510  0.00  0.00    +0.000 A 
ATOM      6  C   UNL     1      22.673   0.247  52.920  0.00  0.00    +0.000 A 
ATOM      7  C   UNL     1      23.204  -0.518  53.965  0.00  0.00    +0.000 A 
ATOM      8  C   UNL     1      22.377  -1.389  54.672  0.00  0.00    +0.000 A 
ATOM      9  C   UNL     1      21.002  -1.424  54.405  0.00  0.00    +0.000 A 
ATOM     10  C   UNL     1      20.425  -0.689  53.341  0.00  0.00    +0.000 A 
ENDROOT
BRANCH   6  11
ATOM     11  S   UNL     1      23.761   1.426  52.094  0.00  0.00    +0.000 S 
ATOM     12  O   UNL     1      25.099   1.114  52.558  0.00  0.00    +0.000 OA
ATOM     13  O   UNL     1      23.488   1.506  50.678  0.00  0.00    +0.000 OA
BRANCH  11  14
ATOM     14  N   UNL     1      23.433   2.960  52.728  0.00  0.00    +0.000 N 
ATOM     15  C   UNL     1      22.813   3.904  51.851  0.00  0.00    +0.000 A 
ATOM     16  N   UNL     1      21.468   3.928  51.991  0.00  0.00    +0.000 NA
ATOM     17  C   UNL     1      20.830   4.894  51.280  0.00  0.00    +0.000 A 
ATOM     18  C   UNL     1      21.499   5.788  50.448  0.00  0.00    +0.000 A 
ATOM     19 BR   UNL     1      20.530   7.127  49.525  0.00  0.00    +0.000 Br
ATOM     20  N   UNL     1      22.834   5.759  50.295  0.00  0.00    +0.000 NA
ATOM     21  C   UNL     1      23.501   4.801  50.991  0.00  0.00    +0.000 A 
ATOM     22  H   UNL     1      23.658   3.192  53.659  0.00  0.00    +0.000 HD
BRANCH  21  23
ATOM     23  O   UNL     1      24.874   4.765  50.908  0.00  0.00    +0.000 OA
ATOM     24  C   UNL     1      25.327   4.309  49.629  0.00  0.00    +0.000 C 
ENDBRANCH  21  23
ENDBRANCH  11  14
ENDBRANCH   6  11
BRANCH   1  25
ATOM     25  N   UNL     1      18.057  -1.266  53.911  0.00  0.00    +0.000 N 
ATOM     26  H   UNL     1      18.060  -1.071  54.876  0.00  0.00    +0.000 HD
BRANCH  25  28
ATOM     27  C   UNL     1      17.348  -3.615  53.642  0.00  0.00    +0.000 C 
ATOM     28  C   UNL     1      17.060  -2.162  53.315  0.00  0.00    +0.000 C 
ENDBRANCH  25  28
ENDBRANCH   1  25
TORSDOF 5
ENDMDL
MODEL 6
REMARK VINA RESULT:    -7.817      3.318      5.628
REMARK INTER + INTRA:         -10.645
REMARK INTER:                  -9.993
REMARK INTRA:                  -0.651
REMARK UNBOUND:                -0.543
REMARK  Name = 
REMARK  7 active torsions:
REMARK  status: ('A' for Active; 'I' for Inactive)
REMARK    1  A    between atoms: C_1  and  C_2
REMARK    2  A    between atoms: C_2  and  N_3
REMARK    3  A    between atoms: N_3  and  C_4
REMARK    4  A    between atoms: C_9  and  S_10
REMARK    5  A    between atoms: S_10  and  N_13
REMARK    6  A    between atoms: C_20  and  O_21
REMARK    7  A    between atoms: O_21  and  C_22
REMARK                            x       y       z     vdW  Elec       q    Type
REMARK                         _______ _______ _______ _____ _____    ______ ____
ROOT
ATOM      1  C   UNL     1      18.195  -1.024  52.975  0.00  0.00    +0.000 A 
ATOM      2  C   UNL     1      17.363  -0.607  51.923  0.00  0.00    +0.000 A 
ATOM      3  C   UNL     1      17.856   0.154  50.882  0.00  0.00    +0.000 A 
ATOM      4  C   UNL     1      19.127   0.684  50.972  0.00  0.00    +0.000 A 
ATOM      5  C   UNL     1      19.928   0.527  52.116  0.00  0.00    +0.000 A 
ATOM      6  C   UNL     1      21.135   1.255  52.323  0.00  0.00    +0.000 A 
ATOM      7  C   UNL     1      22.062   0.815  53.276  0.00  0.00    +0.000 A 
ATOM      8  C   UNL     1      21.749  -0.268  54.094  0.00  0.00    +0.000 A 
ATOM      9  C   UNL     1      20.476  -0.851  54.033  0.00  0.00    +0.000 A 
ATOM     10  C   UNL     1      19.518  -0.459  53.068  0.00  0.00    +0.000 A 
ENDROOT
BRANCH   6  11
ATOM     11  S   UNL     1      21.547   2.717  51.350  0.00  0.00    +0.000 S 
ATOM     12  O   UNL     1      21.983   2.217  50.060  0.00  0.00    +0.000 OA
ATOM     13  O   UNL     1      20.511   3.719  51.423  0.00  0.00    +0.000 OA
BRANCH  11  14
ATOM     14  N   UNL     1      22.931   3.414  52.030  0.00  0.00    +0.000 N 
ATOM     15  C   UNL     1      24.029   3.666  51.149  0.00  0.00    +0.000 A 
ATOM     16  N   UNL     1      24.029   4.935  50.680  0.00  0.00    +0.000 NA
ATOM     17  C   UNL     1      25.117   5.277  49.941  0.00  0.00    +0.000 A 
ATOM     18  C   UNL     1      26.152   4.389  49.662  0.00  0.00    +0.000 A 
ATOM     19 BR   UNL     1      27.648   4.967  48.655  0.00  0.00    +0.000 Br
ATOM     20  N   UNL     1      26.149   3.123  50.115  0.00  0.00    +0.000 NA
ATOM     21  C   UNL     1      25.073   2.749  50.855  0.00  0.00    +0.000 A 
ATOM     22  H   UNL     1      22.977   3.637  52.988  0.00  0.00    +0.000 HD
BRANCH  21  23
ATOM     23  O   UNL     1      25.049   1.480  51.384  0.00  0.00    +0.000 OA
ATOM     24  C   UNL     1      25.850   1.370  52.565  0.00  0.00    +0.000 C 
ENDBRANCH  21  23
ENDBRANCH  11  14
ENDBRANCH   6  11
BRANCH   1  25
ATOM     25  N   UNL     1      17.669  -1.880  53.979  0.00  0.00    +0.000 N 
ATOM     26  H   UNL     1      17.351  -1.525  54.840  0.00  0.00    +0.000 HD
BRANCH  25  28
ATOM     27  C   UNL     1      16.275  -3.717  53.099  0.00  0.00    +0.000 C 
ATOM     28  C   UNL     1      17.618  -3.315  53.678  0.00  0.00    +0.000 C 
ENDBRANCH  25  28
ENDBRANCH   1  25
TORSDOF 5
ENDMDL
MODEL 7
REMARK VINA RESULT:    -7.770      3.390      4.403
REMARK INTER + INTRA:         -10.585
REMARK INTER:                 -10.188
REMARK INTRA:                  -0.397
REMARK UNBOUND:                -0.543
REMARK  Name = 
REMARK  7 active torsions:
REMARK  status: ('A' for Active; 'I' for Inactive)
REMARK    1  A    between atoms: C_1  and  C_2
REMARK    2  A    between atoms: C_2  and  N_3
REMARK    3  A    between atoms: N_3  and  C_4
REMARK    4  A    between atoms: C_9  and  S_10
REMARK    5  A    between atoms: S_10  and  N_13
REMARK    6  A    between atoms: C_20  and  O_21
REMARK    7  A    between atoms: O_21  and  C_22
REMARK                            x       y       z     vdW  Elec       q    Type
REMARK                         _______ _______ _______ _____ _____    ______ ____
ROOT
ATOM      1  C   UNL     1      26.288  -0.186  53.463  0.00  0.00    +0.000 A 
ATOM      2  C   UNL     1      26.488   0.646  52.349  0.00  0.00    +0.000 A 
ATOM      3  C   UNL     1      25.468   1.432  51.852  0.00  0.00    +0.000 A 
ATOM      4  C   UNL     1      24.183   1.253  52.324  0.00  0.00    +0.000 A 
ATOM      5  C   UNL     1      23.857   0.254  53.258  0.00  0.00    +0.000 A 
ATOM      6  C   UNL     1      22.514  -0.099  53.577  0.00  0.00    +0.000 A 
ATOM      7  C   UNL     1      22.240  -0.823  54.743  0.00  0.00    +0.000 A 
ATOM      8  C   UNL     1      23.292  -1.291  55.528  0.00  0.00    +0.000 A 
ATOM      9  C   UNL     1      24.616  -1.123  55.100  0.00  0.00    +0.000 A 
ATOM     10  C   UNL     1      24.942  -0.375  53.944  0.00  0.00    +0.000 A 
ENDROOT
BRANCH   6  11
ATOM     11  S   UNL     1      21.122   0.407  52.546  0.00  0.00    +0.000 S 
ATOM     12  O   UNL     1      21.494   0.058  51.189  0.00  0.00    +0.000 OA
ATOM     13  O   UNL     1      19.862  -0.044  53.088  0.00  0.00    +0.000 OA
BRANCH  11  14
ATOM     14  N   UNL     1      21.064   2.098  52.555  0.00  0.00    +0.000 N 
ATOM     15  C   UNL     1      20.355   2.726  51.483  0.00  0.00    +0.000 A 
ATOM     16  N   UNL     1      19.076   3.016  51.815  0.00  0.00    +0.000 NA
ATOM     17  C   UNL     1      18.387   3.730  50.887  0.00  0.00    +0.000 A 
ATOM     18  C   UNL     1      18.939   4.124  49.671  0.00  0.00    +0.000 A 
ATOM     19 BR   UNL     1      17.913   5.152  48.455  0.00  0.00    +0.000 Br
ATOM     20  N   UNL     1      20.206   3.827  49.332  0.00  0.00    +0.000 NA
ATOM     21  C   UNL     1      20.921   3.110  50.239  0.00  0.00    +0.000 A 
ATOM     22  H   UNL     1      21.498   2.625  53.265  0.00  0.00    +0.000 HD
BRANCH  21  23
ATOM     23  O   UNL     1      22.238   2.827  49.959  0.00  0.00    +0.000 OA
ATOM     24  C   UNL     1      23.064   3.995  50.000  0.00  0.00    +0.000 C 
ENDBRANCH  21  23
ENDBRANCH  11  14
ENDBRANCH   6  11
BRANCH   1  25
ATOM     25  N   UNL     1      27.387  -0.910  53.996  0.00  0.00    +0.000 N 
ATOM     26  H   UNL     1      27.346  -1.885  54.121  0.00  0.00    +0.000 HD
BRANCH  25  28
ATOM     27  C   UNL     1      29.814  -0.655  53.622  0.00  0.00    +0.000 C 
ATOM     28  C   UNL     1      28.587  -0.143  54.351  0.00  0.00    +0.000 C 
ENDBRANCH  25  28
ENDBRANCH   1  25
TORSDOF 5
ENDMDL
MODEL 8
REMARK VINA RESULT:    -7.765      2.809      6.827
REMARK INTER + INTRA:         -10.578
REMARK INTER:                 -10.025
REMARK INTRA:                  -0.553
REMARK UNBOUND:                -0.543
REMARK  Name = 
REMARK  7 active torsions:
REMARK  status: ('A' for Active; 'I' for Inactive)
REMARK    1  A    between atoms: C_1  and  C_2
REMARK    2  A    between atoms: C_2  and  N_3
REMARK    3  A    between atoms: N_3  and  C_4
REMARK    4  A    between atoms: C_9  and  S_10
REMARK    5  A    between atoms: S_10  and  N_13
REMARK    6  A    between atoms: C_20  and  O_21
REMARK    7  A    between atoms: O_21  and  C_22
REMARK                            x       y       z     vdW  Elec       q    Type
REMARK                         _______ _______ _______ _____ _____    ______ ____
ROOT
ATOM      1  C   UNL     1      26.383   6.651  49.143  0.00  0.00    +0.000 A 
ATOM      2  C   UNL     1      27.345   5.692  48.785  0.00  0.00    +0.000 A 
ATOM      3  C   UNL     1      27.101   4.342  48.944  0.00  0.00    +0.000 A 
ATOM      4  C   UNL     1      25.986   3.933  49.647  0.00  0.00    +0.000 A 
ATOM      5  C   UNL     1      25.109   4.843  50.263  0.00  0.00    +0.000 A 
ATOM      6  C   UNL     1      24.097   4.442  51.182  0.00  0.00    +0.000 A 
ATOM      7  C   UNL     1      23.042   5.312  51.483  0.00  0.00    +0.000 A 
ATOM      8  C   UNL     1      23.048   6.608  50.969  0.00  0.00    +0.000 A 
ATOM      9  C   UNL     1      24.151   7.068  50.237  0.00  0.00    +0.000 A 
ATOM     10  C   UNL     1      25.226   6.217  49.885  0.00  0.00    +0.000 A 
ENDROOT
BRANCH   6  11
ATOM     11  S   UNL     1      24.091   2.807  51.944  0.00  0.00    +0.000 S 
ATOM     12  O   UNL     1      22.771   2.650  52.523  0.00  0.00    +0.000 OA
ATOM     13  O   UNL     1      24.612   1.798  51.051  0.00  0.00    +0.000 OA
BRANCH  11  14
ATOM     14  N   UNL     1      25.140   2.854  53.271  0.00  0.00    +0.000 N 
ATOM     15  C   UNL     1      26.170   1.863  53.317  0.00  0.00    +0.000 A 
ATOM     16  N   UNL     1      27.338   2.312  52.805  0.00  0.00    +0.000 NA
ATOM     17  C   UNL     1      28.391   1.464  52.937  0.00  0.00    +0.000 A 
ATOM     18  C   UNL     1      28.283   0.212  53.537  0.00  0.00    +0.000 A 
ATOM     19 BR   UNL     1      29.816  -0.888  53.712  0.00  0.00    +0.000 Br
ATOM     20  N   UNL     1      27.121  -0.244  54.036  0.00  0.00    +0.000 NA
ATOM     21  C   UNL     1      26.047   0.580  53.916  0.00  0.00    +0.000 A 
ATOM     22  H   UNL     1      25.046   3.534  53.978  0.00  0.00    +0.000 HD
BRANCH  21  23
ATOM     23  O   UNL     1      24.848   0.180  54.457  0.00  0.00    +0.000 OA
ATOM     24  C   UNL     1      24.105  -0.658  53.566  0.00  0.00    +0.000 C 
ENDBRANCH  21  23
ENDBRANCH  11  14
ENDBRANCH   6  11
BRANCH   1  25
ATOM     25  N   UNL     1      26.639   8.023  48.880  0.00  0.00    +0.000 N 
ATOM     26  H   UNL     1      26.340   8.448  48.044  0.00  0.00    +0.000 HD
BRANCH  25  28
ATOM     27  C   UNL     1      28.687   9.305  49.382  0.00  0.00    +0.000 C 
ATOM     28  C   UNL     1      27.365   8.779  49.906  0.00  0.00    +0.000 C 
ENDBRANCH  25  28
ENDBRANCH   1  25
TORSDOF 5
ENDMDL
MODEL 9
REMARK VINA RESULT:    -7.742      4.603      6.392
REMARK INTER + INTRA:         -10.548
REMARK INTER:                 -10.286
REMARK INTRA:                  -0.262
REMARK UNBOUND:                -0.543
REMARK  Name = 
REMARK  7 active torsions:
REMARK  status: ('A' for Active; 'I' for Inactive)
REMARK    1  A    between atoms: C_1  and  C_2
REMARK    2  A    between atoms: C_2  and  N_3
REMARK    3  A    between atoms: N_3  and  C_4
REMARK    4  A    between atoms: C_9  and  S_10
REMARK    5  A    between atoms: S_10  and  N_13
REMARK    6  A    between atoms: C_20  and  O_21
REMARK    7  A    between atoms: O_21  and  C_22
REMARK                            x       y       z     vdW  Elec       q    Type
REMARK                         _______ _______ _______ _____ _____    ______ ____
ROOT
ATOM      1  C   UNL     1      26.551  -0.149  53.331  0.00  0.00    +0.000 A 
ATOM      2  C   UNL     1      26.880   0.704  52.264  0.00  0.00    +0.000 A 
ATOM      3  C   UNL     1      25.955   1.588  51.745  0.00  0.00    +0.000 A 
ATOM      4  C   UNL     1      24.635   1.497  52.139  0.00  0.00    +0.000 A 
ATOM      5  C   UNL     1      24.178   0.494  53.011  0.00  0.00    +0.000 A 
ATOM      6  C   UNL     1      22.795   0.239  53.242  0.00  0.00    +0.000 A 
ATOM      7  C   UNL     1      22.399  -0.503  54.361  0.00  0.00    +0.000 A 
ATOM      8  C   UNL     1      23.364  -1.083  55.182  0.00  0.00    +0.000 A 
ATOM      9  C   UNL     1      24.719  -1.007  54.834  0.00  0.00    +0.000 A 
ATOM     10  C   UNL     1      25.169  -0.246  53.729  0.00  0.00    +0.000 A 
ENDROOT
BRANCH   6  11
ATOM     11  S   UNL     1      21.510   0.894  52.159  0.00  0.00    +0.000 S 
ATOM     12  O   UNL     1      21.902   2.259  51.866  0.00  0.00    +0.000 OA
ATOM     13  O   UNL     1      21.203  -0.017  51.080  0.00  0.00    +0.000 OA
BRANCH  11  14
ATOM     14  N   UNL     1      20.093   1.040  53.072  0.00  0.00    +0.000 N 
ATOM     15  C   UNL     1      19.005   0.180  52.722  0.00  0.00    +0.000 A 
ATOM     16  N   UNL     1      18.976  -0.942  53.477  0.00  0.00    +0.000 NA
ATOM     17  C   UNL     1      17.893  -1.739  53.283  0.00  0.00    +0.000 A 
ATOM     18  C   UNL     1      16.890  -1.444  52.364  0.00  0.00    +0.000 A 
ATOM     19 BR   UNL     1      15.397  -2.596  52.190  0.00  0.00    +0.000 Br
ATOM     20  N   UNL     1      16.922  -0.337  51.602  0.00  0.00    +0.000 NA
ATOM     21  C   UNL     1      17.995   0.481  51.770  0.00  0.00    +0.000 A 
ATOM     22  H   UNL     1      20.021   1.688  53.811  0.00  0.00    +0.000 HD
BRANCH  21  23
ATOM     23  O   UNL     1      18.047   1.652  51.051  0.00  0.00    +0.000 OA
ATOM     24  C   UNL     1      17.500   1.506  49.737  0.00  0.00    +0.000 C 
ENDBRANCH  21  23
ENDBRANCH  11  14
ENDBRANCH   6  11
BRANCH   1  25
ATOM     25  N   UNL     1      27.557  -0.978  53.893  0.00  0.00    +0.000 N 
ATOM     26  H   UNL     1      27.431  -1.951  53.978  0.00  0.00    +0.000 HD
BRANCH  25  28
ATOM     27  C   UNL     1      30.008  -0.876  53.617  0.00  0.00    +0.000 C 
ATOM     28  C   UNL     1      28.793  -0.326  54.338  0.00  0.00    +0.000 C 
ENDBRANCH  25  28
ENDBRANCH   1  25
TORSDOF 5
ENDMDL
