MODEL 1
REMARK VINA RESULT:    -7.513      0.000      0.000
REMARK INTER + INTRA:         -13.375
REMARK INTER:                 -11.466
REMARK INTRA:                  -1.909
REMARK UNBOUND:                -1.909
REMARK  Name = 
REMARK  10 active torsions:
REMARK  status: ('A' for Active; 'I' for Inactive)
REMARK    1  A    between atoms: C_1  and  C_2
REMARK    2  A    between atoms: C_2  and  C_3
REMARK    3  A    between atoms: C_3  and  C_4
REMARK    4  A    between atoms: C_4  and  C_5
REMARK    5  A    between atoms: C_5  and  C_6
REMARK    6  A    between atoms: C_6  and  C_7
REMARK    7  A    between atoms: C_7  and  C_8
REMARK    8  A    between atoms: C_7  and  N_11
REMARK    9  A    between atoms: C_16  and  C_17
REMARK   10  A    between atoms: C_22  and  S_23
REMARK                            x       y       z     vdW  Elec       q    Type
REMARK                         _______ _______ _______ _____ _____    ______ ____
ROOT
ATOM      1  N   UNL     1      22.515   0.807  52.283  0.00  0.00    +0.000 N 
ATOM      2  C   UNL     1      21.690   0.580  51.214  0.00  0.00    +0.000 A 
ATOM      3  N   UNL     1      22.040   1.294  50.172  0.00  0.00    +0.000 NA
ATOM      4  C   UNL     1      23.139   2.001  50.579  0.00  0.00    +0.000 A 
ATOM      5  C   UNL     1      23.888   2.951  49.873  0.00  0.00    +0.000 A 
ATOM      6  C   UNL     1      25.029   3.544  50.439  0.00  0.00    +0.000 A 
ATOM      7  C   UNL     1      25.344   3.179  51.770  0.00  0.00    +0.000 A 
ATOM      8  C   UNL     1      24.571   2.289  52.532  0.00  0.00    +0.000 A 
ATOM      9  C   UNL     1      23.478   1.705  51.892  0.00  0.00    +0.000 A 
ENDROOT
BRANCH   6  10
ATOM     10  C   UNL     1      25.824   4.585  49.722  0.00  0.00    +0.000 A 
ATOM     11  C   UNL     1      27.053   4.176  49.139  0.00  0.00    +0.000 A 
ATOM     12  C   UNL     1      27.914   5.056  48.480  0.00  0.00    +0.000 A 
ATOM     13  C   UNL     1      27.581   6.397  48.383  0.00  0.00    +0.000 A 
ATOM     14  C   UNL     1      26.386   6.847  48.936  0.00  0.00    +0.000 A 
ATOM     15  C   UNL     1      25.514   5.963  49.598  0.00  0.00    +0.000 A 
BRANCH  15  16
ATOM     16  S   UNL     1      24.040   6.710  50.267  0.00  0.00    +0.000 S 
ATOM     17  O   UNL     1      22.897   6.349  49.469  0.00  0.00    +0.000 OA
ATOM     18  O   UNL     1      24.078   6.527  51.705  0.00  0.00    +0.000 OA
ATOM     19  O   UNL     1      24.217   8.304  50.070  0.00  0.00    +0.000 OA
ENDBRANCH  15  16
ENDBRANCH   6  10
BRANCH   1  20
ATOM     20  C   UNL     1      22.411   0.186  53.593  0.00  0.00    +0.000 C 
BRANCH  20  21
ATOM     21  C   UNL     1      20.960  -0.080  53.933  0.00  0.00    +0.000 C 
ATOM     22  O   UNL     1      20.087   0.749  54.136  0.00  0.00    +0.000 OA
ATOM     23  O   UNL     1      20.670  -1.398  54.002  0.00  0.00    +0.000 OA
ENDBRANCH  20  21
BRANCH  20  24
ATOM     24  C   UNL     1      23.258  -1.089  53.724  0.00  0.00    +0.000 C 
BRANCH  24  25
ATOM     25  C   UNL     1      24.211  -1.036  54.926  0.00  0.00    +0.000 C 
BRANCH  25  26
ATOM     26  C   UNL     1      25.615  -0.579  54.523  0.00  0.00    +0.000 C 
BRANCH  26  27
ATOM     27  C   UNL     1      25.955  -1.030  53.099  0.00  0.00    +0.000 C 
BRANCH  27  29
ATOM     28  C   UNL     1      27.799   0.617  53.598  0.00  0.00    +0.000 C 
ATOM     29  C   UNL     1      27.212  -0.337  52.569  0.00  0.00    +0.000 C 
ENDBRANCH  27  29
ENDBRANCH  26  27
ENDBRANCH  25  26
ENDBRANCH  24  25
ENDBRANCH  20  24
ENDBRANCH   1  20
TORSDOF 9
ENDMDL
MODEL 2
REMARK VINA RESULT:    -7.304      1.144      1.471
REMARK INTER + INTRA:         -13.056
REMARK INTER:                 -11.481
REMARK INTRA:                  -1.575
REMARK UNBOUND:                -1.909
REMARK  Name = 
REMARK  10 active torsions:
REMARK  status: ('A' for Active; 'I' for Inactive)
REMARK    1  A    between atoms: C_1  and  C_2
REMARK    2  A    between atoms: C_2  and  C_3
REMARK    3  A    between atoms: C_3  and  C_4
REMARK    4  A    between atoms: C_4  and  C_5
REMARK    5  A    between atoms: C_5  and  C_6
REMARK    6  A    between atoms: C_6  and  C_7
REMARK    7  A    between atoms: C_7  and  C_8
REMARK    8  A    between atoms: C_7  and  N_11
REMARK    9  A    between atoms: C_16  and  C_17
REMARK   10  A    between atoms: C_22  and  S_23
REMARK                            x       y       z     vdW  Elec       q    Type
REMARK                         _______ _______ _______ _____ _____    ______ ____
ROOT
ATOM      1  N   UNL     1      22.032   1.430  51.096  0.00  0.00    +0.000 N 
ATOM      2  C   UNL     1      21.510   1.125  49.868  0.00  0.00    +0.000 A 
ATOM      3  N   UNL     1      22.140   1.751  48.905  0.00  0.00    +0.000 NA
ATOM      4  C   UNL     1      23.114   2.480  49.532  0.00  0.00    +0.000 A 
ATOM      5  C   UNL     1      24.048   3.365  48.979  0.00  0.00    +0.000 A 
ATOM      6  C   UNL     1      25.017   3.993  49.778  0.00  0.00    +0.000 A 
ATOM      7  C   UNL     1      24.962   3.733  51.169  0.00  0.00    +0.000 A 
ATOM      8  C   UNL     1      23.991   2.913  51.766  0.00  0.00    +0.000 A 
ATOM      9  C   UNL     1      23.088   2.288  50.906  0.00  0.00    +0.000 A 
ENDROOT
BRANCH   6  10
ATOM     10  C   UNL     1      26.001   4.967  49.220  0.00  0.00    +0.000 A 
ATOM     11  C   UNL     1      27.284   4.467  48.873  0.00  0.00    +0.000 A 
ATOM     12  C   UNL     1      28.312   5.277  48.384  0.00  0.00    +0.000 A 
ATOM     13  C   UNL     1      28.096   6.636  48.227  0.00  0.00    +0.000 A 
ATOM     14  C   UNL     1      26.855   7.175  48.550  0.00  0.00    +0.000 A 
ATOM     15  C   UNL     1      25.816   6.362  49.041  0.00  0.00    +0.000 A 
BRANCH  15  16
ATOM     16  S   UNL     1      24.300   7.217  49.427  0.00  0.00    +0.000 S 
ATOM     17  O   UNL     1      23.253   6.794  48.534  0.00  0.00    +0.000 OA
ATOM     18  O   UNL     1      24.151   7.200  50.869  0.00  0.00    +0.000 OA
ATOM     19  O   UNL     1      24.563   8.773  49.078  0.00  0.00    +0.000 OA
ENDBRANCH  15  16
ENDBRANCH   6  10
BRANCH   1  20
ATOM     20  C   UNL     1      21.571   0.918  52.376  0.00  0.00    +0.000 C 
BRANCH  20  21
ATOM     21  C   UNL     1      20.084   1.160  52.533  0.00  0.00    +0.000 C 
ATOM     22  O   UNL     1      19.209   0.316  52.640  0.00  0.00    +0.000 OA
ATOM     23  O   UNL     1      19.765   2.473  52.550  0.00  0.00    +0.000 OA
ENDBRANCH  20  21
BRANCH  20  24
ATOM     24  C   UNL     1      21.921  -0.562  52.592  0.00  0.00    +0.000 C 
BRANCH  24  25
ATOM     25  C   UNL     1      22.909  -0.766  53.749  0.00  0.00    +0.000 C 
BRANCH  25  26
ATOM     26  C   UNL     1      24.207   0.017  53.535  0.00  0.00    +0.000 C 
BRANCH  26  27
ATOM     27  C   UNL     1      25.425  -0.803  53.969  0.00  0.00    +0.000 C 
BRANCH  27  29
ATOM     28  C   UNL     1      26.833   0.292  52.187  0.00  0.00    +0.000 C 
ATOM     29  C   UNL     1      26.402  -1.025  52.813  0.00  0.00    +0.000 C 
ENDBRANCH  27  29
ENDBRANCH  26  27
ENDBRANCH  25  26
ENDBRANCH  24  25
ENDBRANCH  20  24
ENDBRANCH   1  20
TORSDOF 9
ENDMDL
MODEL 3
REMARK VINA RESULT:    -7.304      2.719      7.469
REMARK INTER + INTRA:         -13.056
REMARK INTER:                 -10.923
REMARK INTRA:                  -2.133
REMARK UNBOUND:                -1.909
REMARK  Name = 
REMARK  10 active torsions:
REMARK  status: ('A' for Active; 'I' for Inactive)
REMARK    1  A    between atoms: C_1  and  C_2
REMARK    2  A    between atoms: C_2  and  C_3
REMARK    3  A    between atoms: C_3  and  C_4
REMARK    4  A    between atoms: C_4  and  C_5
REMARK    5  A    between atoms: C_5  and  C_6
REMARK    6  A    between atoms: C_6  and  C_7
REMARK    7  A    between atoms: C_7  and  C_8
REMARK    8  A    between atoms: C_7  and  N_11
REMARK    9  A    between atoms: C_16  and  C_17
REMARK   10  A    between atoms: C_22  and  S_23
REMARK                            x       y       z     vdW  Elec       q    Type
REMARK                         _______ _______ _______ _____ _____    ______ ____
ROOT
ATOM      1  N   UNL     1      23.624   4.428  50.354  0.00  0.00    +0.000 N 
ATOM      2  C   UNL     1      23.408   5.266  51.415  0.00  0.00    +0.000 A 
ATOM      3  N   UNL     1      22.503   4.787  52.233  0.00  0.00    +0.000 NA
ATOM      4  C   UNL     1      22.128   3.589  51.688  0.00  0.00    +0.000 A 
ATOM      5  C   UNL     1      21.160   2.681  52.133  0.00  0.00    +0.000 A 
ATOM      6  C   UNL     1      20.943   1.463  51.467  0.00  0.00    +0.000 A 
ATOM      7  C   UNL     1      21.707   1.231  50.298  0.00  0.00    +0.000 A 
ATOM      8  C   UNL     1      22.631   2.154  49.781  0.00  0.00    +0.000 A 
ATOM      9  C   UNL     1      22.825   3.322  50.518  0.00  0.00    +0.000 A 
ENDROOT
BRANCH   6  10
ATOM     10  C   UNL     1      19.893   0.495  51.900  0.00  0.00    +0.000 A 
ATOM     11  C   UNL     1      18.651   0.533  51.211  0.00  0.00    +0.000 A 
ATOM     12  C   UNL     1      17.569  -0.286  51.544  0.00  0.00    +0.000 A 
ATOM     13  C   UNL     1      17.685  -1.180  52.596  0.00  0.00    +0.000 A 
ATOM     14  C   UNL     1      18.882  -1.257  53.300  0.00  0.00    +0.000 A 
ATOM     15  C   UNL     1      19.975  -0.436  52.966  0.00  0.00    +0.000 A 
BRANCH  15  16
ATOM     16  S   UNL     1      21.423  -0.648  53.985  0.00  0.00    +0.000 S 
ATOM     17  O   UNL     1      22.595  -0.774  53.159  0.00  0.00    +0.000 OA
ATOM     18  O   UNL     1      21.331   0.311  55.070  0.00  0.00    +0.000 OA
ATOM     19  O   UNL     1      21.251  -2.081  54.713  0.00  0.00    +0.000 OA
ENDBRANCH  15  16
ENDBRANCH   6  10
BRANCH   1  20
ATOM     20  C   UNL     1      24.554   4.651  49.260  0.00  0.00    +0.000 C 
BRANCH  20  21
ATOM     21  C   UNL     1      24.295   5.999  48.618  0.00  0.00    +0.000 C 
ATOM     22  O   UNL     1      24.971   7.009  48.730  0.00  0.00    +0.000 OA
ATOM     23  O   UNL     1      23.181   6.010  47.854  0.00  0.00    +0.000 OA
ENDBRANCH  20  21
BRANCH  20  24
ATOM     24  C   UNL     1      26.024   4.509  49.682  0.00  0.00    +0.000 C 
BRANCH  24  25
ATOM     25  C   UNL     1      26.454   3.041  49.818  0.00  0.00    +0.000 C 
BRANCH  25  26
ATOM     26  C   UNL     1      26.866   2.698  51.252  0.00  0.00    +0.000 C 
BRANCH  26  27
ATOM     27  C   UNL     1      26.534   1.242  51.589  0.00  0.00    +0.000 C 
BRANCH  27  29
ATOM     28  C   UNL     1      25.038   2.260  53.346  0.00  0.00    +0.000 C 
ATOM     29  C   UNL     1      25.213   1.123  52.352  0.00  0.00    +0.000 C 
ENDBRANCH  27  29
ENDBRANCH  26  27
ENDBRANCH  25  26
ENDBRANCH  24  25
ENDBRANCH  20  24
ENDBRANCH   1  20
TORSDOF 9
ENDMDL
MODEL 4
REMARK VINA RESULT:    -7.198      2.880      6.955
REMARK INTER + INTRA:         -12.894
REMARK INTER:                 -10.944
REMARK INTRA:                  -1.950
REMARK UNBOUND:                -1.909
REMARK  Name = 
REMARK  10 active torsions:
REMARK  status: ('A' for Active; 'I' for Inactive)
REMARK    1  A    between atoms: C_1  and  C_2
REMARK    2  A    between atoms: C_2  and  C_3
REMARK    3  A    between atoms: C_3  and  C_4
REMARK    4  A    between atoms: C_4  and  C_5
REMARK    5  A    between atoms: C_5  and  C_6
REMARK    6  A    between atoms: C_6  and  C_7
REMARK    7  A    between atoms: C_7  and  C_8
REMARK    8  A    between atoms: C_7  and  N_11
REMARK    9  A    between atoms: C_16  and  C_17
REMARK   10  A    between atoms: C_22  and  S_23
REMARK                            x       y       z     vdW  Elec       q    Type
REMARK                         _______ _______ _______ _____ _____    ______ ____
ROOT
ATOM      1  N   UNL     1      22.754   4.575  49.265  0.00  0.00    +0.000 N 
ATOM      2  C   UNL     1      22.631   3.707  48.213  0.00  0.00    +0.000 A 
ATOM      3  N   UNL     1      22.653   2.458  48.612  0.00  0.00    +0.000 NA
ATOM      4  C   UNL     1      22.784   2.522  49.973  0.00  0.00    +0.000 A 
ATOM      5  C   UNL     1      22.902   1.477  50.898  0.00  0.00    +0.000 A 
ATOM      6  C   UNL     1      22.977   1.731  52.277  0.00  0.00    +0.000 A 
ATOM      7  C   UNL     1      22.988   3.090  52.675  0.00  0.00    +0.000 A 
ATOM      8  C   UNL     1      22.948   4.162  51.770  0.00  0.00    +0.000 A 
ATOM      9  C   UNL     1      22.831   3.835  50.420  0.00  0.00    +0.000 A 
ENDROOT
BRANCH   6  10
ATOM     10  C   UNL     1      23.139   0.638  53.281  0.00  0.00    +0.000 A 
ATOM     11  C   UNL     1      21.954   0.092  53.843  0.00  0.00    +0.000 A 
ATOM     12  C   UNL     1      21.964  -0.902  54.825  0.00  0.00    +0.000 A 
ATOM     13  C   UNL     1      23.173  -1.390  55.293  0.00  0.00    +0.000 A 
ATOM     14  C   UNL     1      24.361  -0.889  54.773  0.00  0.00    +0.000 A 
ATOM     15  C   UNL     1      24.356   0.110  53.781  0.00  0.00    +0.000 A 
BRANCH  15  16
ATOM     16  S   UNL     1      25.967   0.654  53.243  0.00  0.00    +0.000 S 
ATOM     17  O   UNL     1      26.175   0.293  51.865  0.00  0.00    +0.000 OA
ATOM     18  O   UNL     1      26.151   2.006  53.733  0.00  0.00    +0.000 OA
ATOM     19  O   UNL     1      27.037  -0.217  54.084  0.00  0.00    +0.000 OA
ENDBRANCH  15  16
ENDBRANCH   6  10
BRANCH   1  20
ATOM     20  C   UNL     1      22.772   6.026  49.181  0.00  0.00    +0.000 C 
BRANCH  20  21
ATOM     21  C   UNL     1      21.646   6.613  50.008  0.00  0.00    +0.000 C 
ATOM     22  O   UNL     1      21.751   7.361  50.967  0.00  0.00    +0.000 OA
ATOM     23  O   UNL     1      20.425   6.227  49.580  0.00  0.00    +0.000 OA
ENDBRANCH  20  21
BRANCH  20  24
ATOM     24  C   UNL     1      24.127   6.635  49.574  0.00  0.00    +0.000 C 
BRANCH  24  25
ATOM     25  C   UNL     1      25.219   6.349  48.533  0.00  0.00    +0.000 C 
BRANCH  25  26
ATOM     26  C   UNL     1      26.598   6.195  49.180  0.00  0.00    +0.000 C 
BRANCH  26  27
ATOM     27  C   UNL     1      27.274   4.895  48.738  0.00  0.00    +0.000 C 
BRANCH  27  29
ATOM     28  C   UNL     1      26.463   3.395  50.596  0.00  0.00    +0.000 C 
ATOM     29  C   UNL     1      26.436   3.667  49.099  0.00  0.00    +0.000 C 
ENDBRANCH  27  29
ENDBRANCH  26  27
ENDBRANCH  25  26
ENDBRANCH  24  25
ENDBRANCH  20  24
ENDBRANCH   1  20
TORSDOF 9
ENDMDL
MODEL 5
REMARK VINA RESULT:    -7.090      3.017      7.842
REMARK INTER + INTRA:         -12.730
REMARK INTER:                 -11.488
REMARK INTRA:                  -1.242
REMARK UNBOUND:                -1.909
REMARK  Name = 
REMARK  10 active torsions:
REMARK  status: ('A' for Active; 'I' for Inactive)
REMARK    1  A    between atoms: C_1  and  C_2
REMARK    2  A    between atoms: C_2  and  C_3
REMARK    3  A    between atoms: C_3  and  C_4
REMARK    4  A    between atoms: C_4  and  C_5
REMARK    5  A    between atoms: C_5  and  C_6
REMARK    6  A    between atoms: C_6  and  C_7
REMARK    7  A    between atoms: C_7  and  C_8
REMARK    8  A    between atoms: C_7  and  N_11
REMARK    9  A    between atoms: C_16  and  C_17
REMARK   10  A    between atoms: C_22  and  S_23
REMARK                            x       y       z     vdW  Elec       q    Type
REMARK                         _______ _______ _______ _____ _____    ______ ____
ROOT
ATOM      1  N   UNL     1      24.491   5.498  50.013  0.00  0.00    +0.000 N 
ATOM      2  C   UNL     1      24.210   6.421  50.984  0.00  0.00    +0.000 A 
ATOM      3  N   UNL     1      23.704   5.859  52.055  0.00  0.00    +0.000 NA
ATOM      4  C   UNL     1      23.667   4.520  51.769  0.00  0.00    +0.000 A 
ATOM      5  C   UNL     1      23.177   3.465  52.548  0.00  0.00    +0.000 A 
ATOM      6  C   UNL     1      23.268   2.134  52.109  0.00  0.00    +0.000 A 
ATOM      7  C   UNL     1      23.822   1.922  50.823  0.00  0.00    +0.000 A 
ATOM      8  C   UNL     1      24.251   2.963  49.985  0.00  0.00    +0.000 A 
ATOM      9  C   UNL     1      24.171   4.256  50.503  0.00  0.00    +0.000 A 
ENDROOT
BRANCH   6  10
ATOM     10  C   UNL     1      22.722   0.994  52.905  0.00  0.00    +0.000 A 
ATOM     11  C   UNL     1      21.309   0.865  52.968  0.00  0.00    +0.000 A 
ATOM     12  C   UNL     1      20.667  -0.127  53.713  0.00  0.00    +0.000 A 
ATOM     13  C   UNL     1      21.420  -1.035  54.438  0.00  0.00    +0.000 A 
ATOM     14  C   UNL     1      22.809  -0.952  54.407  0.00  0.00    +0.000 A 
ATOM     15  C   UNL     1      23.460   0.044  53.655  0.00  0.00    +0.000 A 
BRANCH  15  16
ATOM     16  S   UNL     1      25.240   0.021  53.745  0.00  0.00    +0.000 S 
ATOM     17  O   UNL     1      25.777  -0.807  52.696  0.00  0.00    +0.000 OA
ATOM     18  O   UNL     1      25.679   1.386  53.966  0.00  0.00    +0.000 OA
ATOM     19  O   UNL     1      25.608  -0.737  55.124  0.00  0.00    +0.000 OA
ENDBRANCH  15  16
ENDBRANCH   6  10
BRANCH   1  20
ATOM     20  C   UNL     1      25.055   5.777  48.702  0.00  0.00    +0.000 C 
BRANCH  20  21
ATOM     21  C   UNL     1      24.257   6.862  48.009  0.00  0.00    +0.000 C 
ATOM     22  O   UNL     1      24.601   8.018  47.816  0.00  0.00    +0.000 OA
ATOM     23  O   UNL     1      23.049   6.435  47.583  0.00  0.00    +0.000 OA
ENDBRANCH  20  21
BRANCH  20  24
ATOM     24  C   UNL     1      26.549   6.129  48.753  0.00  0.00    +0.000 C 
BRANCH  24  25
ATOM     25  C   UNL     1      27.444   4.882  48.721  0.00  0.00    +0.000 C 
BRANCH  25  26
ATOM     26  C   UNL     1      28.866   5.212  48.261  0.00  0.00    +0.000 C 
BRANCH  26  27
ATOM     27  C   UNL     1      28.970   6.664  47.785  0.00  0.00    +0.000 C 
BRANCH  27  29
ATOM     28  C   UNL     1      31.187   6.408  48.959  0.00  0.00    +0.000 C 
ATOM     29  C   UNL     1      30.154   7.390  48.429  0.00  0.00    +0.000 C 
ENDBRANCH  27  29
ENDBRANCH  26  27
ENDBRANCH  25  26
ENDBRANCH  24  25
ENDBRANCH  20  24
ENDBRANCH   1  20
TORSDOF 9
ENDMDL
MODEL 6
REMARK VINA RESULT:    -7.085      2.806      7.295
REMARK INTER + INTRA:         -12.722
REMARK INTER:                 -10.262
REMARK INTRA:                  -2.459
REMARK UNBOUND:                -1.909
REMARK  Name = 
REMARK  10 active torsions:
REMARK  status: ('A' for Active; 'I' for Inactive)
REMARK    1  A    between atoms: C_1  and  C_2
REMARK    2  A    between atoms: C_2  and  C_3
REMARK    3  A    between atoms: C_3  and  C_4
REMARK    4  A    between atoms: C_4  and  C_5
REMARK    5  A    between atoms: C_5  and  C_6
REMARK    6  A    between atoms: C_6  and  C_7
REMARK    7  A    between atoms: C_7  and  C_8
REMARK    8  A    between atoms: C_7  and  N_11
REMARK    9  A    between atoms: C_16  and  C_17
REMARK   10  A    between atoms: C_22  and  S_23
REMARK                            x       y       z     vdW  Elec       q    Type
REMARK                         _______ _______ _______ _____ _____    ______ ____
ROOT
ATOM      1  N   UNL     1      23.685   4.300  50.456  0.00  0.00    +0.000 N 
ATOM      2  C   UNL     1      23.489   5.199  51.470  0.00  0.00    +0.000 A 
ATOM      3  N   UNL     1      22.668   4.732  52.379  0.00  0.00    +0.000 NA
ATOM      4  C   UNL     1      22.328   3.479  51.942  0.00  0.00    +0.000 A 
ATOM      5  C   UNL     1      21.445   2.555  52.511  0.00  0.00    +0.000 A 
ATOM      6  C   UNL     1      21.257   1.284  51.945  0.00  0.00    +0.000 A 
ATOM      7  C   UNL     1      21.957   1.011  50.745  0.00  0.00    +0.000 A 
ATOM      8  C   UNL     1      22.790   1.942  50.106  0.00  0.00    +0.000 A 
ATOM      9  C   UNL     1      22.964   3.168  50.748  0.00  0.00    +0.000 A 
ENDROOT
BRANCH   6  10
ATOM     10  C   UNL     1      20.294   0.294  52.513  0.00  0.00    +0.000 A 
ATOM     11  C   UNL     1      20.810  -0.662  53.428  0.00  0.00    +0.000 A 
ATOM     12  C   UNL     1      20.030  -1.672  53.997  0.00  0.00    +0.000 A 
ATOM     13  C   UNL     1      18.689  -1.770  53.664  0.00  0.00    +0.000 A 
ATOM     14  C   UNL     1      18.135  -0.857  52.773  0.00  0.00    +0.000 A 
ATOM     15  C   UNL     1      18.917   0.164  52.200  0.00  0.00    +0.000 A 
BRANCH  15  16
ATOM     16  S   UNL     1      18.055   1.233  51.063  0.00  0.00    +0.000 S 
ATOM     17  O   UNL     1      17.918   2.549  51.629  0.00  0.00    +0.000 OA
ATOM     18  O   UNL     1      18.617   1.004  49.746  0.00  0.00    +0.000 OA
ATOM     19  O   UNL     1      16.551   0.651  50.955  0.00  0.00    +0.000 OA
ENDBRANCH  15  16
ENDBRANCH   6  10
BRANCH   1  20
ATOM     20  C   UNL     1      24.528   4.495  49.289  0.00  0.00    +0.000 C 
BRANCH  20  21
ATOM     21  C   UNL     1      24.201   5.814  48.620  0.00  0.00    +0.000 C 
ATOM     22  O   UNL     1      24.897   6.818  48.592  0.00  0.00    +0.000 OA
ATOM     23  O   UNL     1      22.997   5.808  48.007  0.00  0.00    +0.000 OA
ENDBRANCH  20  21
BRANCH  20  24
ATOM     24  C   UNL     1      26.028   4.388  49.605  0.00  0.00    +0.000 C 
BRANCH  24  25
ATOM     25  C   UNL     1      26.467   2.941  49.869  0.00  0.00    +0.000 C 
BRANCH  25  26
ATOM     26  C   UNL     1      26.657   2.665  51.362  0.00  0.00    +0.000 C 
BRANCH  26  27
ATOM     27  C   UNL     1      26.084   1.298  51.749  0.00  0.00    +0.000 C 
BRANCH  27  29
ATOM     28  C   UNL     1      24.515   0.064  53.290  0.00  0.00    +0.000 C 
ATOM     29  C   UNL     1      25.228   1.379  53.015  0.00  0.00    +0.000 C 
ENDBRANCH  27  29
ENDBRANCH  26  27
ENDBRANCH  25  26
ENDBRANCH  24  25
ENDBRANCH  20  24
ENDBRANCH   1  20
TORSDOF 9
ENDMDL
MODEL 7
REMARK VINA RESULT:    -6.938      3.067      5.929
REMARK INTER + INTRA:         -12.498
REMARK INTER:                 -11.252
REMARK INTRA:                  -1.245
REMARK UNBOUND:                -1.909
REMARK  Name = 
REMARK  10 active torsions:
REMARK  status: ('A' for Active; 'I' for Inactive)
REMARK    1  A    between atoms: C_1  and  C_2
REMARK    2  A    between atoms: C_2  and  C_3
REMARK    3  A    between atoms: C_3  and  C_4
REMARK    4  A    between atoms: C_4  and  C_5
REMARK    5  A    between atoms: C_5  and  C_6
REMARK    6  A    between atoms: C_6  and  C_7
REMARK    7  A    between atoms: C_7  and  C_8
REMARK    8  A    between atoms: C_7  and  N_11
REMARK    9  A    between atoms: C_16  and  C_17
REMARK   10  A    between atoms: C_22  and  S_23
REMARK                            x       y       z     vdW  Elec       q    Type
REMARK                         _______ _______ _______ _____ _____    ______ ____
ROOT
ATOM      1  N   UNL     1      21.413   1.312  52.463  0.00  0.00    +0.000 N 
ATOM      2  C   UNL     1      20.929   0.649  53.559  0.00  0.00    +0.000 A 
ATOM      3  N   UNL     1      21.866  -0.044  54.159  0.00  0.00    +0.000 NA
ATOM      4  C   UNL     1      23.002   0.189  53.430  0.00  0.00    +0.000 A 
ATOM      5  C   UNL     1      24.287  -0.338  53.606  0.00  0.00    +0.000 A 
ATOM      6  C   UNL     1      25.354   0.058  52.783  0.00  0.00    +0.000 A 
ATOM      7  C   UNL     1      25.052   0.965  51.739  0.00  0.00    +0.000 A 
ATOM      8  C   UNL     1      23.760   1.453  51.487  0.00  0.00    +0.000 A 
ATOM      9  C   UNL     1      22.758   1.051  52.370  0.00  0.00    +0.000 A 
ENDROOT
BRANCH   6  10
ATOM     10  C   UNL     1      26.726  -0.515  52.927  0.00  0.00    +0.000 A 
ATOM     11  C   UNL     1      26.872  -1.910  52.704  0.00  0.00    +0.000 A 
ATOM     12  C   UNL     1      28.089  -2.581  52.849  0.00  0.00    +0.000 A 
ATOM     13  C   UNL     1      29.218  -1.878  53.235  0.00  0.00    +0.000 A 
ATOM     14  C   UNL     1      29.126  -0.509  53.463  0.00  0.00    +0.000 A 
ATOM     15  C   UNL     1      27.903   0.172  53.315  0.00  0.00    +0.000 A 
BRANCH  15  16
ATOM     16  S   UNL     1      27.959   1.919  53.669  0.00  0.00    +0.000 S 
ATOM     17  O   UNL     1      26.751   2.326  54.339  0.00  0.00    +0.000 OA
ATOM     18  O   UNL     1      29.279   2.211  54.193  0.00  0.00    +0.000 OA
ATOM     19  O   UNL     1      27.932   2.667  52.236  0.00  0.00    +0.000 OA
ENDBRANCH  15  16
ENDBRANCH   6  10
BRANCH   1  20
ATOM     20  C   UNL     1      20.647   2.165  51.570  0.00  0.00    +0.000 C 
BRANCH  20  21
ATOM     21  C   UNL     1      19.309   1.527  51.254  0.00  0.00    +0.000 C 
ATOM     22  O   UNL     1      19.114   0.508  50.611  0.00  0.00    +0.000 OA
ATOM     23  O   UNL     1      18.266   2.211  51.772  0.00  0.00    +0.000 OA
ENDBRANCH  20  21
BRANCH  20  24
ATOM     24  C   UNL     1      20.470   3.593  52.107  0.00  0.00    +0.000 C 
BRANCH  24  25
ATOM     25  C   UNL     1      21.812   4.307  52.321  0.00  0.00    +0.000 C 
BRANCH  25  26
ATOM     26  C   UNL     1      22.074   5.364  51.245  0.00  0.00    +0.000 C 
BRANCH  26  27
ATOM     27  C   UNL     1      23.574   5.527  50.984  0.00  0.00    +0.000 C 
BRANCH  27  29
ATOM     28  C   UNL     1      25.253   4.268  49.585  0.00  0.00    +0.000 C 
ATOM     29  C   UNL     1      23.958   5.067  49.576  0.00  0.00    +0.000 C 
ENDBRANCH  27  29
ENDBRANCH  26  27
ENDBRANCH  25  26
ENDBRANCH  24  25
ENDBRANCH  20  24
ENDBRANCH   1  20
TORSDOF 9
ENDMDL
MODEL 8
REMARK VINA RESULT:    -6.855      2.197      2.958
REMARK INTER + INTRA:         -12.371
REMARK INTER:                 -10.349
REMARK INTRA:                  -2.022
REMARK UNBOUND:                -1.909
REMARK  Name = 
REMARK  10 active torsions:
REMARK  status: ('A' for Active; 'I' for Inactive)
REMARK    1  A    between atoms: C_1  and  C_2
REMARK    2  A    between atoms: C_2  and  C_3
REMARK    3  A    between atoms: C_3  and  C_4
REMARK    4  A    between atoms: C_4  and  C_5
REMARK    5  A    between atoms: C_5  and  C_6
REMARK    6  A    between atoms: C_6  and  C_7
REMARK    7  A    between atoms: C_7  and  C_8
REMARK    8  A    between atoms: C_7  and  N_11
REMARK    9  A    between atoms: C_16  and  C_17
REMARK   10  A    between atoms: C_22  and  S_23
REMARK                            x       y       z     vdW  Elec       q    Type
REMARK                         _______ _______ _______ _____ _____    ______ ____
ROOT
ATOM      1  N   UNL     1      21.794   3.073  51.511  0.00  0.00    +0.000 N 
ATOM      2  C   UNL     1      21.683   4.000  52.513  0.00  0.00    +0.000 A 
ATOM      3  N   UNL     1      22.579   4.949  52.395  0.00  0.00    +0.000 NA
ATOM      4  C   UNL     1      23.290   4.630  51.269  0.00  0.00    +0.000 A 
ATOM      5  C   UNL     1      24.392   5.284  50.706  0.00  0.00    +0.000 A 
ATOM      6  C   UNL     1      24.968   4.838  49.505  0.00  0.00    +0.000 A 
ATOM      7  C   UNL     1      24.417   3.667  48.931  0.00  0.00    +0.000 A 
ATOM      8  C   UNL     1      23.362   2.943  49.509  0.00  0.00    +0.000 A 
ATOM      9  C   UNL     1      22.811   3.469  50.678  0.00  0.00    +0.000 A 
ENDROOT
BRANCH   6  10
ATOM     10  C   UNL     1      26.165   5.495  48.903  0.00  0.00    +0.000 A 
ATOM     11  C   UNL     1      27.372   4.746  48.874  0.00  0.00    +0.000 A 
ATOM     12  C   UNL     1      28.575   5.257  48.381  0.00  0.00    +0.000 A 
ATOM     13  C   UNL     1      28.622   6.555  47.900  0.00  0.00    +0.000 A 
ATOM     14  C   UNL     1      27.466   7.329  47.905  0.00  0.00    +0.000 A 
ATOM     15  C   UNL     1      26.251   6.817  48.398  0.00  0.00    +0.000 A 
BRANCH  15  16
ATOM     16  S   UNL     1      24.876   7.951  48.352  0.00  0.00    +0.000 S 
ATOM     17  O   UNL     1      23.750   7.337  47.697  0.00  0.00    +0.000 OA
ATOM     18  O   UNL     1      24.778   8.563  49.663  0.00  0.00    +0.000 OA
ATOM     19  O   UNL     1      25.328   9.164  47.386  0.00  0.00    +0.000 OA
ENDBRANCH  15  16
ENDBRANCH   6  10
BRANCH   1  20
ATOM     20  C   UNL     1      20.965   1.891  51.341  0.00  0.00    +0.000 C 
BRANCH  20  21
ATOM     21  C   UNL     1      20.041   2.066  50.152  0.00  0.00    +0.000 C 
ATOM     22  O   UNL     1      19.128   2.869  50.042  0.00  0.00    +0.000 OA
ATOM     23  O   UNL     1      20.315   1.209  49.144  0.00  0.00    +0.000 OA
ENDBRANCH  20  21
BRANCH  20  24
ATOM     24  C   UNL     1      21.781   0.595  51.227  0.00  0.00    +0.000 C 
BRANCH  24  25
ATOM     25  C   UNL     1      22.008  -0.074  52.589  0.00  0.00    +0.000 C 
BRANCH  25  26
ATOM     26  C   UNL     1      23.155   0.582  53.363  0.00  0.00    +0.000 C 
BRANCH  26  27
ATOM     27  C   UNL     1      24.410   0.701  52.495  0.00  0.00    +0.000 C 
BRANCH  27  29
ATOM     28  C   UNL     1      26.310   2.232  51.857  0.00  0.00    +0.000 C 
ATOM     29  C   UNL     1      25.292   1.874  52.929  0.00  0.00    +0.000 C 
ENDBRANCH  27  29
ENDBRANCH  26  27
ENDBRANCH  25  26
ENDBRANCH  24  25
ENDBRANCH  20  24
ENDBRANCH   1  20
TORSDOF 9
ENDMDL
MODEL 9
REMARK VINA RESULT:    -6.660      2.544      7.097
REMARK INTER + INTRA:         -12.073
REMARK INTER:                 -10.072
REMARK INTRA:                  -2.001
REMARK UNBOUND:                -1.909
REMARK  Name = 
REMARK  10 active torsions:
REMARK  status: ('A' for Active; 'I' for Inactive)
REMARK    1  A    between atoms: C_1  and  C_2
REMARK    2  A    between atoms: C_2  and  C_3
REMARK    3  A    between atoms: C_3  and  C_4
REMARK    4  A    between atoms: C_4  and  C_5
REMARK    5  A    between atoms: C_5  and  C_6
REMARK    6  A    between atoms: C_6  and  C_7
REMARK    7  A    between atoms: C_7  and  C_8
REMARK    8  A    between atoms: C_7  and  N_11
REMARK    9  A    between atoms: C_16  and  C_17
REMARK   10  A    between atoms: C_22  and  S_23
REMARK                            x       y       z     vdW  Elec       q    Type
REMARK                         _______ _______ _______ _____ _____    ______ ____
ROOT
ATOM      1  N   UNL     1      22.427   5.385  48.474  0.00  0.00    +0.000 N 
ATOM      2  C   UNL     1      22.183   4.536  47.428  0.00  0.00    +0.000 A 
ATOM      3  N   UNL     1      22.322   3.281  47.781  0.00  0.00    +0.000 NA
ATOM      4  C   UNL     1      22.657   3.320  49.109  0.00  0.00    +0.000 A 
ATOM      5  C   UNL     1      22.961   2.262  49.973  0.00  0.00    +0.000 A 
ATOM      6  C   UNL     1      23.235   2.488  51.332  0.00  0.00    +0.000 A 
ATOM      7  C   UNL     1      23.246   3.836  51.764  0.00  0.00    +0.000 A 
ATOM      8  C   UNL     1      23.021   4.926  50.907  0.00  0.00    +0.000 A 
ATOM      9  C   UNL     1      22.713   4.624  49.581  0.00  0.00    +0.000 A 
ENDROOT
BRANCH   6  10
ATOM     10  C   UNL     1      23.598   1.381  52.266  0.00  0.00    +0.000 A 
ATOM     11  C   UNL     1      24.981   1.160  52.505  0.00  0.00    +0.000 A 
ATOM     12  C   UNL     1      25.458   0.131  53.321  0.00  0.00    +0.000 A 
ATOM     13  C   UNL     1      24.562  -0.732  53.930  0.00  0.00    +0.000 A 
ATOM     14  C   UNL     1      23.197  -0.555  53.729  0.00  0.00    +0.000 A 
ATOM     15  C   UNL     1      22.711   0.482  52.911  0.00  0.00    +0.000 A 
BRANCH  15  16
ATOM     16  S   UNL     1      20.937   0.551  52.744  0.00  0.00    +0.000 S 
ATOM     17  O   UNL     1      20.440   1.798  53.262  0.00  0.00    +0.000 OA
ATOM     18  O   UNL     1      20.611   0.071  51.415  0.00  0.00    +0.000 OA
ATOM     19  O   UNL     1      20.351  -0.590  53.728  0.00  0.00    +0.000 OA
ENDBRANCH  15  16
ENDBRANCH   6  10
BRANCH   1  20
ATOM     20  C   UNL     1      22.368   6.837  48.432  0.00  0.00    +0.000 C 
BRANCH  20  21
ATOM     21  C   UNL     1      21.299   7.346  49.377  0.00  0.00    +0.000 C 
ATOM     22  O   UNL     1      20.122   7.022  49.399  0.00  0.00    +0.000 OA
ATOM     23  O   UNL     1      21.769   8.250  50.264  0.00  0.00    +0.000 OA
ENDBRANCH  20  21
BRANCH  20  24
ATOM     24  C   UNL     1      23.723   7.503  48.713  0.00  0.00    +0.000 C 
BRANCH  24  25
ATOM     25  C   UNL     1      24.778   7.150  47.655  0.00  0.00    +0.000 C 
BRANCH  25  26
ATOM     26  C   UNL     1      26.170   6.987  48.269  0.00  0.00    +0.000 C 
BRANCH  26  27
ATOM     27  C   UNL     1      26.170   5.912  49.361  0.00  0.00    +0.000 C 
BRANCH  27  29
ATOM     28  C   UNL     1      26.455   3.415  49.568  0.00  0.00    +0.000 C 
ATOM     29  C   UNL     1      27.007   4.696  48.960  0.00  0.00    +0.000 C 
ENDBRANCH  27  29
ENDBRANCH  26  27
ENDBRANCH  25  26
ENDBRANCH  24  25
ENDBRANCH  20  24
ENDBRANCH   1  20
TORSDOF 9
ENDMDL
