MODEL 1
REMARK VINA RESULT:    -9.567      0.000      0.000
REMARK INTER + INTRA:         -12.048
REMARK INTER:                 -11.245
REMARK INTRA:                  -0.803
REMARK UNBOUND:                -0.803
REMARK  Name = 
REMARK  5 active torsions:
REMARK  status: ('A' for Active; 'I' for Inactive)
REMARK    1  A    between atoms: C_1  and  N_2
REMARK    2  A    between atoms: C_5  and  C_6
REMARK    3  A    between atoms: C_7  and  O_8
REMARK    4  A    between atoms: C_10  and  O_11
REMARK    5  A    between atoms: C_16  and  C_17
REMARK                            x       y       z     vdW  Elec       q    Type
REMARK                         _______ _______ _______ _____ _____    ______ ____
ROOT
ATOM      1  C   UNL     1      24.120  -0.310  53.942  0.00  0.00    +0.000 A 
ATOM      2  C   UNL     1      23.910  -1.193  55.017  0.00  0.00    +0.000 A 
ATOM      3  C   UNL     1      22.636  -1.687  55.305  0.00  0.00    +0.000 A 
ATOM      4  C   UNL     1      21.549  -1.295  54.524  0.00  0.00    +0.000 A 
ATOM      5  C   UNL     1      21.724  -0.405  53.454  0.00  0.00    +0.000 A 
ATOM      6  C   UNL     1      20.595   0.052  52.607  0.00  0.00    +0.000 A 
ATOM      7  O   UNL     1      19.433  -0.309  52.741  0.00  0.00    +0.000 OA
ATOM      8  C   UNL     1      20.918   1.006  51.533  0.00  0.00    +0.000 A 
ATOM      9  C   UNL     1      22.183   1.391  51.365  0.00  0.00    +0.000 A 
ATOM     10  O   UNL     1      23.249   0.957  52.127  0.00  0.00    +0.000 OA
ATOM     11  C   UNL     1      23.008   0.080  53.166  0.00  0.00    +0.000 A 
ENDROOT
BRANCH   1  16
ATOM     12  C   UNL     1      29.487   1.057  53.937  0.00  0.00    +0.000 C 
ATOM     13  N   UNL     1      28.230   1.057  53.215  0.00  0.00    +0.000 N 
ATOM     14  C   UNL     1      27.776  -0.233  52.729  0.00  0.00    +0.000 C 
ATOM     15  C   UNL     1      26.369  -0.620  53.025  0.00  0.00    +0.000 C 
ATOM     16  C   UNL     1      25.476   0.187  53.625  0.00  0.00    +0.000 C 
ATOM     17  C   UNL     1      25.826   1.588  54.017  0.00  0.00    +0.000 C 
ATOM     18  C   UNL     1      27.260   2.043  53.672  0.00  0.00    +0.000 C 
ATOM     19  H   UNL     1      28.442   1.461  52.303  0.00  0.00    +0.000 HD
ENDBRANCH   1  16
BRANCH   9  20
ATOM     20  C   UNL     1      22.555   2.342  50.303  0.00  0.00    +0.000 A 
ATOM     21  C   UNL     1      22.338   1.972  48.964  0.00  0.00    +0.000 A 
ATOM     22  C   UNL     1      22.674   2.837  47.918  0.00  0.00    +0.000 A 
ATOM     23  C   UNL     1      23.225   4.085  48.195  0.00  0.00    +0.000 A 
ATOM     24  C   UNL     1      23.443   4.469  49.518  0.00  0.00    +0.000 A 
ATOM     25  C   UNL     1      23.115   3.602  50.569  0.00  0.00    +0.000 A 
ATOM     26 BR   UNL     1      23.475   4.204  52.335  0.00  0.00    +0.000 Br
ENDBRANCH   9  20
BRANCH   2  27
ATOM     27  O   UNL     1      24.966  -1.566  55.809  0.00  0.00    +0.000 OA
ATOM     28  H   UNL     1      25.615  -2.155  55.477  0.00  0.00    +0.000 HD
ENDBRANCH   2  27
BRANCH   4  29
ATOM     29  O   UNL     1      20.313  -1.790  54.829  0.00  0.00    +0.000 OA
ATOM     30  H   UNL     1      19.865  -2.343  54.218  0.00  0.00    +0.000 HD
ENDBRANCH   4  29
TORSDOF 4
ENDMDL
MODEL 2
REMARK VINA RESULT:    -9.393      2.481      5.054
REMARK INTER + INTRA:         -11.844
REMARK INTER:                 -10.997
REMARK INTRA:                  -0.846
REMARK UNBOUND:                -0.803
REMARK  Name = 
REMARK  5 active torsions:
REMARK  status: ('A' for Active; 'I' for Inactive)
REMARK    1  A    between atoms: C_1  and  N_2
REMARK    2  A    between atoms: C_5  and  C_6
REMARK    3  A    between atoms: C_7  and  O_8
REMARK    4  A    between atoms: C_10  and  O_11
REMARK    5  A    between atoms: C_16  and  C_17
REMARK                            x       y       z     vdW  Elec       q    Type
REMARK                         _______ _______ _______ _____ _____    ______ ____
ROOT
ATOM      1  C   UNL     1      22.190   0.133  53.313  0.00  0.00    +0.000 A 
ATOM      2  C   UNL     1      21.816  -0.877  54.219  0.00  0.00    +0.000 A 
ATOM      3  C   UNL     1      22.751  -1.457  55.078  0.00  0.00    +0.000 A 
ATOM      4  C   UNL     1      24.082  -1.041  55.036  0.00  0.00    +0.000 A 
ATOM      5  C   UNL     1      24.489  -0.047  54.133  0.00  0.00    +0.000 A 
ATOM      6  C   UNL     1      25.895   0.416  54.040  0.00  0.00    +0.000 A 
ATOM      7  O   UNL     1      26.812   0.002  54.739  0.00  0.00    +0.000 OA
ATOM      8  C   UNL     1      26.188   1.449  53.033  0.00  0.00    +0.000 A 
ATOM      9  C   UNL     1      25.194   1.922  52.281  0.00  0.00    +0.000 A 
ATOM     10  O   UNL     1      23.876   1.522  52.370  0.00  0.00    +0.000 OA
ATOM     11  C   UNL     1      23.541   0.538  53.280  0.00  0.00    +0.000 A 
ENDROOT
BRANCH   1  16
ATOM     12  C   UNL     1      19.474   3.186  49.575  0.00  0.00    +0.000 C 
ATOM     13  N   UNL     1      19.405   2.132  50.569  0.00  0.00    +0.000 N 
ATOM     14  C   UNL     1      20.036   0.876  50.207  0.00  0.00    +0.000 C 
ATOM     15  C   UNL     1      20.972   0.270  51.194  0.00  0.00    +0.000 C 
ATOM     16  C   UNL     1      21.189   0.763  52.427  0.00  0.00    +0.000 C 
ATOM     17  C   UNL     1      20.458   1.969  52.928  0.00  0.00    +0.000 C 
ATOM     18  C   UNL     1      19.437   2.589  51.952  0.00  0.00    +0.000 C 
ATOM     19  H   UNL     1      18.443   1.796  50.539  0.00  0.00    +0.000 HD
ENDBRANCH   1  16
BRANCH   9  20
ATOM     20  C   UNL     1      25.436   2.956  51.260  0.00  0.00    +0.000 A 
ATOM     21  C   UNL     1      26.464   2.746  50.323  0.00  0.00    +0.000 A 
ATOM     22  C   UNL     1      26.736   3.697  49.334  0.00  0.00    +0.000 A 
ATOM     23  C   UNL     1      25.983   4.865  49.263  0.00  0.00    +0.000 A 
ATOM     24  C   UNL     1      24.957   5.086  50.182  0.00  0.00    +0.000 A 
ATOM     25  C   UNL     1      24.686   4.141  51.180  0.00  0.00    +0.000 A 
ATOM     26 BR   UNL     1      23.288   4.545  52.403  0.00  0.00    +0.000 Br
ENDBRANCH   9  20
BRANCH   2  27
ATOM     27  O   UNL     1      20.517  -1.314  54.253  0.00  0.00    +0.000 OA
ATOM     28  H   UNL     1      20.016  -1.231  55.042  0.00  0.00    +0.000 HD
ENDBRANCH   2  27
BRANCH   4  29
ATOM     29  O   UNL     1      24.978  -1.626  55.883  0.00  0.00    +0.000 OA
ATOM     30  H   UNL     1      25.132  -1.257  56.731  0.00  0.00    +0.000 HD
ENDBRANCH   4  29
TORSDOF 4
ENDMDL
MODEL 3
REMARK VINA RESULT:    -9.216      1.657      2.145
REMARK INTER + INTRA:         -11.636
REMARK INTER:                 -11.358
REMARK INTRA:                  -0.278
REMARK UNBOUND:                -0.803
REMARK  Name = 
REMARK  5 active torsions:
REMARK  status: ('A' for Active; 'I' for Inactive)
REMARK    1  A    between atoms: C_1  and  N_2
REMARK    2  A    between atoms: C_5  and  C_6
REMARK    3  A    between atoms: C_7  and  O_8
REMARK    4  A    between atoms: C_10  and  O_11
REMARK    5  A    between atoms: C_16  and  C_17
REMARK                            x       y       z     vdW  Elec       q    Type
REMARK                         _______ _______ _______ _____ _____    ______ ____
ROOT
ATOM      1  C   UNL     1      23.925  -0.272  54.018  0.00  0.00    +0.000 A 
ATOM      2  C   UNL     1      23.113  -1.085  54.831  0.00  0.00    +0.000 A 
ATOM      3  C   UNL     1      21.721  -0.976  54.798  0.00  0.00    +0.000 A 
ATOM      4  C   UNL     1      21.120  -0.041  53.955  0.00  0.00    +0.000 A 
ATOM      5  C   UNL     1      21.903   0.795  53.144  0.00  0.00    +0.000 A 
ATOM      6  C   UNL     1      21.309   1.815  52.246  0.00  0.00    +0.000 A 
ATOM      7  O   UNL     1      20.107   2.009  52.111  0.00  0.00    +0.000 OA
ATOM      8  C   UNL     1      22.248   2.640  51.468  0.00  0.00    +0.000 A 
ATOM      9  C   UNL     1      23.558   2.423  51.591  0.00  0.00    +0.000 A 
ATOM     10  O   UNL     1      24.127   1.462  52.402  0.00  0.00    +0.000 OA
ATOM     11  C   UNL     1      23.300   0.672  53.176  0.00  0.00    +0.000 A 
ENDROOT
BRANCH   1  16
ATOM     12  C   UNL     1      29.400   0.368  53.488  0.00  0.00    +0.000 C 
ATOM     13  N   UNL     1      28.312  -0.455  53.978  0.00  0.00    +0.000 N 
ATOM     14  C   UNL     1      27.597   0.058  55.132  0.00  0.00    +0.000 C 
ATOM     15  C   UNL     1      26.111   0.090  55.059  0.00  0.00    +0.000 C 
ATOM     16  C   UNL     1      25.396  -0.413  54.037  0.00  0.00    +0.000 C 
ATOM     17  C   UNL     1      26.057  -1.097  52.881  0.00  0.00    +0.000 C 
ATOM     18  C   UNL     1      27.595  -1.199  52.952  0.00  0.00    +0.000 C 
ATOM     19  H   UNL     1      28.759  -1.239  54.453  0.00  0.00    +0.000 HD
ENDBRANCH   1  16
BRANCH   9  20
ATOM     20  C   UNL     1      24.537   3.221  50.833  0.00  0.00    +0.000 A 
ATOM     21  C   UNL     1      25.635   2.561  50.253  0.00  0.00    +0.000 A 
ATOM     22  C   UNL     1      26.594   3.272  49.524  0.00  0.00    +0.000 A 
ATOM     23  C   UNL     1      26.465   4.647  49.358  0.00  0.00    +0.000 A 
ATOM     24  C   UNL     1      25.380   5.316  49.922  0.00  0.00    +0.000 A 
ATOM     25  C   UNL     1      24.421   4.610  50.661  0.00  0.00    +0.000 A 
ATOM     26 BR   UNL     1      22.993   5.613  51.414  0.00  0.00    +0.000 Br
ENDBRANCH   9  20
BRANCH   2  27
ATOM     27  O   UNL     1      23.692  -1.991  55.682  0.00  0.00    +0.000 OA
ATOM     28  H   UNL     1      23.276  -2.816  55.842  0.00  0.00    +0.000 HD
ENDBRANCH   2  27
BRANCH   4  29
ATOM     29  O   UNL     1      19.758   0.049  53.945  0.00  0.00    +0.000 OA
ATOM     30  H   UNL     1      19.278  -0.189  53.175  0.00  0.00    +0.000 HD
ENDBRANCH   4  29
TORSDOF 4
ENDMDL
MODEL 4
REMARK VINA RESULT:    -8.820      1.989      5.604
REMARK INTER + INTRA:         -11.170
REMARK INTER:                 -10.365
REMARK INTRA:                  -0.805
REMARK UNBOUND:                -0.803
REMARK  Name = 
REMARK  5 active torsions:
REMARK  status: ('A' for Active; 'I' for Inactive)
REMARK    1  A    between atoms: C_1  and  N_2
REMARK    2  A    between atoms: C_5  and  C_6
REMARK    3  A    between atoms: C_7  and  O_8
REMARK    4  A    between atoms: C_10  and  O_11
REMARK    5  A    between atoms: C_16  and  C_17
REMARK                            x       y       z     vdW  Elec       q    Type
REMARK                         _______ _______ _______ _____ _____    ______ ____
ROOT
ATOM      1  C   UNL     1      20.874   1.031  51.163  0.00  0.00    +0.000 A 
ATOM      2  C   UNL     1      19.487   0.801  51.108  0.00  0.00    +0.000 A 
ATOM      3  C   UNL     1      18.850   0.003  52.060  0.00  0.00    +0.000 A 
ATOM      4  C   UNL     1      19.597  -0.588  53.080  0.00  0.00    +0.000 A 
ATOM      5  C   UNL     1      20.984  -0.390  53.153  0.00  0.00    +0.000 A 
ATOM      6  C   UNL     1      21.821  -1.011  54.209  0.00  0.00    +0.000 A 
ATOM      7  O   UNL     1      21.392  -1.722  55.109  0.00  0.00    +0.000 OA
ATOM      8  C   UNL     1      23.267  -0.739  54.153  0.00  0.00    +0.000 A 
ATOM      9  C   UNL     1      23.742   0.050  53.189  0.00  0.00    +0.000 A 
ATOM     10  O   UNL     1      22.975   0.657  52.215  0.00  0.00    +0.000 OA
ATOM     11  C   UNL     1      21.615   0.421  52.198  0.00  0.00    +0.000 A 
ENDROOT
BRANCH   1  16
ATOM     12  C   UNL     1      22.125   4.586  47.106  0.00  0.00    +0.000 C 
ATOM     13  N   UNL     1      22.616   3.702  48.144  0.00  0.00    +0.000 N 
ATOM     14  C   UNL     1      22.413   4.151  49.509  0.00  0.00    +0.000 C 
ATOM     15  C   UNL     1      21.811   3.183  50.467  0.00  0.00    +0.000 C 
ATOM     16  C   UNL     1      21.538   1.900  50.169  0.00  0.00    +0.000 C 
ATOM     17  C   UNL     1      21.863   1.321  48.827  0.00  0.00    +0.000 C 
ATOM     18  C   UNL     1      22.541   2.282  47.828  0.00  0.00    +0.000 C 
ATOM     19  H   UNL     1      23.630   3.809  48.132  0.00  0.00    +0.000 HD
ENDBRANCH   1  16
BRANCH   9  20
ATOM     20  C   UNL     1      25.180   0.354  53.093  0.00  0.00    +0.000 A 
ATOM     21  C   UNL     1      26.086  -0.718  52.994  0.00  0.00    +0.000 A 
ATOM     22  C   UNL     1      27.463  -0.485  52.901  0.00  0.00    +0.000 A 
ATOM     23  C   UNL     1      27.951   0.818  52.898  0.00  0.00    +0.000 A 
ATOM     24  C   UNL     1      27.065   1.891  52.991  0.00  0.00    +0.000 A 
ATOM     25  C   UNL     1      25.687   1.663  53.093  0.00  0.00    +0.000 A 
ATOM     26 BR   UNL     1      24.562   3.189  53.243  0.00  0.00    +0.000 Br
ENDBRANCH   9  20
BRANCH   2  27
ATOM     27  O   UNL     1      18.745   1.354  50.096  0.00  0.00    +0.000 OA
ATOM     28  H   UNL     1      17.895   1.705  50.277  0.00  0.00    +0.000 HD
ENDBRANCH   2  27
BRANCH   4  29
ATOM     29  O   UNL     1      18.951  -1.367  53.996  0.00  0.00    +0.000 OA
ATOM     30  H   UNL     1      19.029  -1.177  54.911  0.00  0.00    +0.000 HD
ENDBRANCH   4  29
TORSDOF 4
ENDMDL
MODEL 5
REMARK VINA RESULT:    -8.763      2.231      5.435
REMARK INTER + INTRA:         -11.103
REMARK INTER:                 -10.385
REMARK INTRA:                  -0.718
REMARK UNBOUND:                -0.803
REMARK  Name = 
REMARK  5 active torsions:
REMARK  status: ('A' for Active; 'I' for Inactive)
REMARK    1  A    between atoms: C_1  and  N_2
REMARK    2  A    between atoms: C_5  and  C_6
REMARK    3  A    between atoms: C_7  and  O_8
REMARK    4  A    between atoms: C_10  and  O_11
REMARK    5  A    between atoms: C_16  and  C_17
REMARK                            x       y       z     vdW  Elec       q    Type
REMARK                         _______ _______ _______ _____ _____    ______ ____
ROOT
ATOM      1  C   UNL     1      22.089   1.801  51.999  0.00  0.00    +0.000 A 
ATOM      2  C   UNL     1      20.694   1.626  51.944  0.00  0.00    +0.000 A 
ATOM      3  C   UNL     1      20.059   0.652  52.717  0.00  0.00    +0.000 A 
ATOM      4  C   UNL     1      20.815  -0.171  53.552  0.00  0.00    +0.000 A 
ATOM      5  C   UNL     1      22.209  -0.031  53.617  0.00  0.00    +0.000 A 
ATOM      6  C   UNL     1      23.056  -0.894  54.477  0.00  0.00    +0.000 A 
ATOM      7  O   UNL     1      22.631  -1.776  55.211  0.00  0.00    +0.000 OA
ATOM      8  C   UNL     1      24.508  -0.654  54.431  0.00  0.00    +0.000 A 
ATOM      9  C   UNL     1      24.981   0.318  53.650  0.00  0.00    +0.000 A 
ATOM     10  O   UNL     1      24.207   1.146  52.863  0.00  0.00    +0.000 OA
ATOM     11  C   UNL     1      22.839   0.956  52.844  0.00  0.00    +0.000 A 
ENDROOT
BRANCH   1  16
ATOM     12  C   UNL     1      25.665   5.216  49.506  0.00  0.00    +0.000 C 
ATOM     13  N   UNL     1      24.282   4.825  49.690  0.00  0.00    +0.000 N 
ATOM     14  C   UNL     1      23.892   3.564  49.087  0.00  0.00    +0.000 C 
ATOM     15  C   UNL     1      23.157   2.593  49.943  0.00  0.00    +0.000 C 
ATOM     16  C   UNL     1      22.752   2.853  51.199  0.00  0.00    +0.000 C 
ATOM     17  C   UNL     1      22.982   4.188  51.836  0.00  0.00    +0.000 C 
ATOM     18  C   UNL     1      23.690   5.238  50.956  0.00  0.00    +0.000 C 
ATOM     19  H   UNL     1      23.746   5.427  49.066  0.00  0.00    +0.000 HD
ENDBRANCH   1  16
BRANCH   9  20
ATOM     20  C   UNL     1      26.425   0.597  53.572  0.00  0.00    +0.000 A 
ATOM     21  C   UNL     1      26.886   1.865  53.970  0.00  0.00    +0.000 A 
ATOM     22  C   UNL     1      28.247   2.182  53.914  0.00  0.00    +0.000 A 
ATOM     23  C   UNL     1      29.165   1.237  53.468  0.00  0.00    +0.000 A 
ATOM     24  C   UNL     1      28.726  -0.026  53.073  0.00  0.00    +0.000 A 
ATOM     25  C   UNL     1      27.362  -0.346  53.119  0.00  0.00    +0.000 A 
ATOM     26 BR   UNL     1      26.857  -2.083  52.535  0.00  0.00    +0.000 Br
ENDBRANCH   9  20
BRANCH   2  27
ATOM     27  O   UNL     1      19.942   2.411  51.108  0.00  0.00    +0.000 OA
ATOM     28  H   UNL     1      19.917   3.339  51.235  0.00  0.00    +0.000 HD
ENDBRANCH   2  27
BRANCH   4  29
ATOM     29  O   UNL     1      20.170  -1.118  54.295  0.00  0.00    +0.000 OA
ATOM     30  H   UNL     1      19.265  -1.304  54.134  0.00  0.00    +0.000 HD
ENDBRANCH   4  29
TORSDOF 4
ENDMDL
MODEL 6
REMARK VINA RESULT:    -8.470      2.155      3.093
REMARK INTER + INTRA:         -10.759
REMARK INTER:                 -10.541
REMARK INTRA:                  -0.218
REMARK UNBOUND:                -0.803
REMARK  Name = 
REMARK  5 active torsions:
REMARK  status: ('A' for Active; 'I' for Inactive)
REMARK    1  A    between atoms: C_1  and  N_2
REMARK    2  A    between atoms: C_5  and  C_6
REMARK    3  A    between atoms: C_7  and  O_8
REMARK    4  A    between atoms: C_10  and  O_11
REMARK    5  A    between atoms: C_16  and  C_17
REMARK                            x       y       z     vdW  Elec       q    Type
REMARK                         _______ _______ _______ _____ _____    ______ ____
ROOT
ATOM      1  C   UNL     1      24.055   1.115  52.818  0.00  0.00    +0.000 A 
ATOM      2  C   UNL     1      23.132   0.303  53.503  0.00  0.00    +0.000 A 
ATOM      3  C   UNL     1      21.757   0.495  53.359  0.00  0.00    +0.000 A 
ATOM      4  C   UNL     1      21.284   1.513  52.532  0.00  0.00    +0.000 A 
ATOM      5  C   UNL     1      22.178   2.349  51.847  0.00  0.00    +0.000 A 
ATOM      6  C   UNL     1      21.722   3.455  50.971  0.00  0.00    +0.000 A 
ATOM      7  O   UNL     1      20.549   3.728  50.747  0.00  0.00    +0.000 OA
ATOM      8  C   UNL     1      22.769   4.270  50.331  0.00  0.00    +0.000 A 
ATOM      9  C   UNL     1      24.049   3.970  50.551  0.00  0.00    +0.000 A 
ATOM     10  O   UNL     1      24.492   2.929  51.343  0.00  0.00    +0.000 OA
ATOM     11  C   UNL     1      23.559   2.144  51.990  0.00  0.00    +0.000 A 
ENDROOT
BRANCH   1  16
ATOM     12  C   UNL     1      29.142  -0.401  54.397  0.00  0.00    +0.000 C 
ATOM     13  N   UNL     1      28.326   0.287  53.417  0.00  0.00    +0.000 N 
ATOM     14  C   UNL     1      27.516  -0.558  52.559  0.00  0.00    +0.000 C 
ATOM     15  C   UNL     1      26.076  -0.208  52.416  0.00  0.00    +0.000 C 
ATOM     16  C   UNL     1      25.510   0.887  52.953  0.00  0.00    +0.000 C 
ATOM     17  C   UNL     1      26.315   1.888  53.723  0.00  0.00    +0.000 C 
ATOM     18  C   UNL     1      27.823   1.587  53.841  0.00  0.00    +0.000 C 
ATOM     19  H   UNL     1      28.977   0.601  52.697  0.00  0.00    +0.000 HD
ENDBRANCH   1  16
BRANCH   9  20
ATOM     20  C   UNL     1      25.132   4.754  49.933  0.00  0.00    +0.000 A 
ATOM     21  C   UNL     1      26.198   4.064  49.328  0.00  0.00    +0.000 A 
ATOM     22  C   UNL     1      27.252   4.760  48.727  0.00  0.00    +0.000 A 
ATOM     23  C   UNL     1      27.253   6.151  48.718  0.00  0.00    +0.000 A 
ATOM     24  C   UNL     1      26.202   6.850  49.310  0.00  0.00    +0.000 A 
ATOM     25  C   UNL     1      25.147   6.158  49.920  0.00  0.00    +0.000 A 
ATOM     26 BR   UNL     1      23.775   7.198  50.725  0.00  0.00    +0.000 Br
ENDBRANCH   9  20
BRANCH   2  27
ATOM     27  O   UNL     1      23.585  -0.685  54.340  0.00  0.00    +0.000 OA
ATOM     28  H   UNL     1      24.498  -0.897  54.364  0.00  0.00    +0.000 HD
ENDBRANCH   2  27
BRANCH   4  29
ATOM     29  O   UNL     1      19.935   1.683  52.411  0.00  0.00    +0.000 OA
ATOM     30  H   UNL     1      19.352   1.258  53.011  0.00  0.00    +0.000 HD
ENDBRANCH   4  29
TORSDOF 4
ENDMDL
MODEL 7
REMARK VINA RESULT:    -8.437      2.757      6.189
REMARK INTER + INTRA:         -10.720
REMARK INTER:                 -10.218
REMARK INTRA:                  -0.502
REMARK UNBOUND:                -0.803
REMARK  Name = 
REMARK  5 active torsions:
REMARK  status: ('A' for Active; 'I' for Inactive)
REMARK    1  A    between atoms: C_1  and  N_2
REMARK    2  A    between atoms: C_5  and  C_6
REMARK    3  A    between atoms: C_7  and  O_8
REMARK    4  A    between atoms: C_10  and  O_11
REMARK    5  A    between atoms: C_16  and  C_17
REMARK                            x       y       z     vdW  Elec       q    Type
REMARK                         _______ _______ _______ _____ _____    ______ ____
ROOT
ATOM      1  C   UNL     1      24.844   2.735  51.085  0.00  0.00    +0.000 A 
ATOM      2  C   UNL     1      26.210   3.072  51.089  0.00  0.00    +0.000 A 
ATOM      3  C   UNL     1      27.145   2.286  51.764  0.00  0.00    +0.000 A 
ATOM      4  C   UNL     1      26.723   1.152  52.457  0.00  0.00    +0.000 A 
ATOM      5  C   UNL     1      25.366   0.797  52.485  0.00  0.00    +0.000 A 
ATOM      6  C   UNL     1      24.869  -0.390  53.223  0.00  0.00    +0.000 A 
ATOM      7  O   UNL     1      25.578  -1.170  53.846  0.00  0.00    +0.000 OA
ATOM      8  C   UNL     1      23.417  -0.632  53.188  0.00  0.00    +0.000 A 
ATOM      9  C   UNL     1      22.638   0.199  52.495  0.00  0.00    +0.000 A 
ATOM     10  O   UNL     1      23.085   1.293  51.782  0.00  0.00    +0.000 OA
ATOM     11  C   UNL     1      24.434   1.587  51.796  0.00  0.00    +0.000 A 
ENDROOT
BRANCH   1  16
ATOM     12  C   UNL     1      20.351   4.834  48.620  0.00  0.00    +0.000 C 
ATOM     13  N   UNL     1      21.751   5.008  48.952  0.00  0.00    +0.000 N 
ATOM     14  C   UNL     1      22.045   5.277  50.348  0.00  0.00    +0.000 C 
ATOM     15  C   UNL     1      23.105   4.455  50.995  0.00  0.00    +0.000 C 
ATOM     16  C   UNL     1      23.863   3.556  50.344  0.00  0.00    +0.000 C 
ATOM     17  C   UNL     1      23.724   3.334  48.870  0.00  0.00    +0.000 C 
ATOM     18  C   UNL     1      22.675   4.211  48.155  0.00  0.00    +0.000 C 
ATOM     19  H   UNL     1      22.000   5.931  48.597  0.00  0.00    +0.000 HD
ENDBRANCH   1  16
BRANCH   9  20
ATOM     20  C   UNL     1      21.180  -0.002  52.429  0.00  0.00    +0.000 A 
ATOM     21  C   UNL     1      20.521  -0.514  53.561  0.00  0.00    +0.000 A 
ATOM     22  C   UNL     1      19.138  -0.725  53.551  0.00  0.00    +0.000 A 
ATOM     23  C   UNL     1      18.395  -0.421  52.414  0.00  0.00    +0.000 A 
ATOM     24  C   UNL     1      19.033   0.091  51.284  0.00  0.00    +0.000 A 
ATOM     25  C   UNL     1      20.419   0.296  51.287  0.00  0.00    +0.000 A 
ATOM     26 BR   UNL     1      21.200   0.972  49.691  0.00  0.00    +0.000 Br
ENDBRANCH   9  20
BRANCH   2  27
ATOM     27  O   UNL     1      26.635   4.199  50.432  0.00  0.00    +0.000 OA
ATOM     28  H   UNL     1      27.229   4.790  50.853  0.00  0.00    +0.000 HD
ENDBRANCH   2  27
BRANCH   4  29
ATOM     29  O   UNL     1      27.657   0.402  53.113  0.00  0.00    +0.000 OA
ATOM     30  H   UNL     1      28.409   0.815  53.491  0.00  0.00    +0.000 HD
ENDBRANCH   4  29
TORSDOF 4
ENDMDL
MODEL 8
REMARK VINA RESULT:    -7.984      2.955      5.589
REMARK INTER + INTRA:         -10.188
REMARK INTER:                  -9.817
REMARK INTRA:                  -0.371
REMARK UNBOUND:                -0.803
REMARK  Name = 
REMARK  5 active torsions:
REMARK  status: ('A' for Active; 'I' for Inactive)
REMARK    1  A    between atoms: C_1  and  N_2
REMARK    2  A    between atoms: C_5  and  C_6
REMARK    3  A    between atoms: C_7  and  O_8
REMARK    4  A    between atoms: C_10  and  O_11
REMARK    5  A    between atoms: C_16  and  C_17
REMARK                            x       y       z     vdW  Elec       q    Type
REMARK                         _______ _______ _______ _____ _____    ______ ____
ROOT
ATOM      1  C   UNL     1      20.292   0.119  52.785  0.00  0.00    +0.000 A 
ATOM      2  C   UNL     1      19.764  -0.855  53.653  0.00  0.00    +0.000 A 
ATOM      3  C   UNL     1      20.591  -1.581  54.511  0.00  0.00    +0.000 A 
ATOM      4  C   UNL     1      21.967  -1.350  54.506  0.00  0.00    +0.000 A 
ATOM      5  C   UNL     1      22.526  -0.396  53.642  0.00  0.00    +0.000 A 
ATOM      6  C   UNL     1      23.984  -0.128  53.590  0.00  0.00    +0.000 A 
ATOM      7  O   UNL     1      24.820  -0.683  54.292  0.00  0.00    +0.000 OA
ATOM      8  C   UNL     1      24.438   0.883  52.619  0.00  0.00    +0.000 A 
ATOM      9  C   UNL     1      23.534   1.508  51.864  0.00  0.00    +0.000 A 
ATOM     10  O   UNL     1      22.172   1.290  51.917  0.00  0.00    +0.000 OA
ATOM     11  C   UNL     1      21.686   0.336  52.789  0.00  0.00    +0.000 A 
ENDROOT
BRANCH   1  16
ATOM     12  C   UNL     1      18.065   3.184  48.746  0.00  0.00    +0.000 C 
ATOM     13  N   UNL     1      17.854   2.469  49.989  0.00  0.00    +0.000 N 
ATOM     14  C   UNL     1      17.899   1.020  49.905  0.00  0.00    +0.000 C 
ATOM     15  C   UNL     1      18.756   0.303  50.888  0.00  0.00    +0.000 C 
ATOM     16  C   UNL     1      19.407   0.905  51.900  0.00  0.00    +0.000 C 
ATOM     17  C   UNL     1      19.285   2.376  52.144  0.00  0.00    +0.000 C 
ATOM     18  C   UNL     1      18.358   3.143  51.178  0.00  0.00    +0.000 C 
ATOM     19  H   UNL     1      16.855   2.547  50.179  0.00  0.00    +0.000 HD
ENDBRANCH   1  16
BRANCH   9  20
ATOM     20  C   UNL     1      23.938   2.527  50.880  0.00  0.00    +0.000 A 
ATOM     21  C   UNL     1      24.990   3.400  51.213  0.00  0.00    +0.000 A 
ATOM     22  C   UNL     1      25.412   4.387  50.316  0.00  0.00    +0.000 A 
ATOM     23  C   UNL     1      24.796   4.510  49.074  0.00  0.00    +0.000 A 
ATOM     24  C   UNL     1      23.755   3.649  48.727  0.00  0.00    +0.000 A 
ATOM     25  C   UNL     1      23.323   2.664  49.626  0.00  0.00    +0.000 A 
ATOM     26 BR   UNL     1      21.880   1.558  49.073  0.00  0.00    +0.000 Br
ENDBRANCH   9  20
BRANCH   2  27
ATOM     27  O   UNL     1      18.417  -1.111  53.649  0.00  0.00    +0.000 OA
ATOM     28  H   UNL     1      17.805  -0.400  53.647  0.00  0.00    +0.000 HD
ENDBRANCH   2  27
BRANCH   4  29
ATOM     29  O   UNL     1      22.755  -2.076  55.352  0.00  0.00    +0.000 OA
ATOM     30  H   UNL     1      23.493  -2.548  55.016  0.00  0.00    +0.000 HD
ENDBRANCH   4  29
TORSDOF 4
ENDMDL
MODEL 9
REMARK VINA RESULT:    -7.889      2.785      5.401
REMARK INTER + INTRA:         -10.076
REMARK INTER:                  -9.473
REMARK INTRA:                  -0.603
REMARK UNBOUND:                -0.803
REMARK  Name = 
REMARK  5 active torsions:
REMARK  status: ('A' for Active; 'I' for Inactive)
REMARK    1  A    between atoms: C_1  and  N_2
REMARK    2  A    between atoms: C_5  and  C_6
REMARK    3  A    between atoms: C_7  and  O_8
REMARK    4  A    between atoms: C_10  and  O_11
REMARK    5  A    between atoms: C_16  and  C_17
REMARK                            x       y       z     vdW  Elec       q    Type
REMARK                         _______ _______ _______ _____ _____    ______ ____
ROOT
ATOM      1  C   UNL     1      22.828   0.632  52.509  0.00  0.00    +0.000 A 
ATOM      2  C   UNL     1      22.965  -0.480  53.360  0.00  0.00    +0.000 A 
ATOM      3  C   UNL     1      24.217  -0.871  53.840  0.00  0.00    +0.000 A 
ATOM      4  C   UNL     1      25.355  -0.158  53.463  0.00  0.00    +0.000 A 
ATOM      5  C   UNL     1      25.253   0.946  52.604  0.00  0.00    +0.000 A 
ATOM      6  C   UNL     1      26.437   1.724  52.164  0.00  0.00    +0.000 A 
ATOM      7  O   UNL     1      27.588   1.498  52.515  0.00  0.00    +0.000 OA
ATOM      8  C   UNL     1      26.188   2.845  51.242  0.00  0.00    +0.000 A 
ATOM      9  C   UNL     1      24.936   3.113  50.870  0.00  0.00    +0.000 A 
ATOM     10  O   UNL     1      23.821   2.416  51.289  0.00  0.00    +0.000 OA
ATOM     11  C   UNL     1      23.991   1.338  52.135  0.00  0.00    +0.000 A 
ENDROOT
BRANCH   1  16
ATOM     12  C   UNL     1      18.545   2.971  49.891  0.00  0.00    +0.000 C 
ATOM     13  N   UNL     1      18.988   2.030  50.901  0.00  0.00    +0.000 N 
ATOM     14  C   UNL     1      19.605   0.813  50.407  0.00  0.00    +0.000 C 
ATOM     15  C   UNL     1      20.910   0.415  51.003  0.00  0.00    +0.000 C 
ATOM     16  C   UNL     1      21.496   1.058  52.029  0.00  0.00    +0.000 C 
ATOM     17  C   UNL     1      20.845   2.231  52.693  0.00  0.00    +0.000 C 
ATOM     18  C   UNL     1      19.464   2.635  52.138  0.00  0.00    +0.000 C 
ATOM     19  H   UNL     1      18.137   1.597  51.258  0.00  0.00    +0.000 HD
ENDBRANCH   1  16
BRANCH   9  20
ATOM     20  C   UNL     1      24.637   4.224  49.950  0.00  0.00    +0.000 A 
ATOM     21  C   UNL     1      25.334   5.435  50.112  0.00  0.00    +0.000 A 
ATOM     22  C   UNL     1      25.087   6.522  49.267  0.00  0.00    +0.000 A 
ATOM     23  C   UNL     1      24.147   6.412  48.247  0.00  0.00    +0.000 A 
ATOM     24  C   UNL     1      23.450   5.217  48.070  0.00  0.00    +0.000 A 
ATOM     25  C   UNL     1      23.688   4.128  48.920  0.00  0.00    +0.000 A 
ATOM     26 BR   UNL     1      22.669   2.552  48.617  0.00  0.00    +0.000 Br
ENDBRANCH   9  20
BRANCH   2  27
ATOM     27  O   UNL     1      21.857  -1.206  53.717  0.00  0.00    +0.000 OA
ATOM     28  H   UNL     1      21.869  -1.726  54.497  0.00  0.00    +0.000 HD
ENDBRANCH   2  27
BRANCH   4  29
ATOM     29  O   UNL     1      26.568  -0.563  53.942  0.00  0.00    +0.000 OA
ATOM     30  H   UNL     1      27.087   0.022  54.459  0.00  0.00    +0.000 HD
ENDBRANCH   4  29
TORSDOF 4
ENDMDL
