MODEL 1
REMARK VINA RESULT:    -8.339      0.000      0.000
REMARK INTER + INTRA:         -10.883
REMARK INTER:                 -10.289
REMARK INTRA:                  -0.594
REMARK UNBOUND:                -0.594
REMARK  Name = 
REMARK  8 active torsions:
REMARK  status: ('A' for Active; 'I' for Inactive)
REMARK    1  A    between atoms: C_1  and  O_2
REMARK    2  A    between atoms: O_2  and  C_3
REMARK    3  A    between atoms: C_8  and  C_9
REMARK    4  A    between atoms: C_20  and  N_21
REMARK    5  A    between atoms: N_21  and  C_22
REMARK    6  A    between atoms: C_22  and  C_23
REMARK    7  A    between atoms: C_22  and  C_24
REMARK    8  A    between atoms: C_22  and  C_25
REMARK                            x       y       z     vdW  Elec       q    Type
REMARK                         _______ _______ _______ _____ _____    ______ ____
ROOT
ATOM      1  C   UNL     1      23.886   5.565  50.355  0.00  0.00    +0.000 C 
ATOM      2  O   UNL     1      22.771   6.060  50.188  0.00  0.00    +0.000 OA
ATOM      3  N   UNL     1      24.029   4.297  50.937  0.00  0.00    +0.000 N 
ATOM      4  C   UNL     1      25.304   3.609  51.148  0.00  0.00    +0.000 C 
ATOM      5  C   UNL     1      25.213   2.070  51.098  0.00  0.00    +0.000 C 
ATOM      6  N   UNL     1      24.094   1.508  51.881  0.00  0.00    +0.000 N 
ATOM      7  C   UNL     1      24.405   0.686  52.958  0.00  0.00    +0.000 A 
ATOM      8  N   UNL     1      25.666   0.836  53.451  0.00  0.00    +0.000 NA
ATOM      9  C   UNL     1      26.081   0.076  54.485  0.00  0.00    +0.000 A 
ATOM     10  C   UNL     1      25.269  -0.805  55.151  0.00  0.00    +0.000 A 
ATOM     11  C   UNL     1      23.973  -0.949  54.684  0.00  0.00    +0.000 A 
ATOM     12  C   UNL     1      23.538  -0.317  53.508  0.00  0.00    +0.000 A 
ATOM     13  C   UNL     1      22.808   2.186  51.686  0.00  0.00    +0.000 C 
ATOM     14  C   UNL     1      22.906   3.736  51.692  0.00  0.00    +0.000 C 
ENDROOT
BRANCH   1  20
ATOM     15  C   UNL     1      28.683   8.651  48.199  0.00  0.00    +0.000 A 
ATOM     16  C   UNL     1      28.415   9.415  49.333  0.00  0.00    +0.000 A 
ATOM     17  C   UNL     1      27.404   9.050  50.232  0.00  0.00    +0.000 A 
ATOM     18  C   UNL     1      26.651   7.908  49.934  0.00  0.00    +0.000 A 
ATOM     19  N   UNL     1      25.622   7.309  50.624  0.00  0.00    +0.000 N 
ATOM     20  C   UNL     1      25.069   6.275  49.894  0.00  0.00    +0.000 A 
ATOM     21  C   UNL     1      25.910   6.093  48.806  0.00  0.00    +0.000 A 
ATOM     22  C   UNL     1      26.875   7.141  48.792  0.00  0.00    +0.000 A 
ATOM     23  C   UNL     1      27.902   7.522  47.911  0.00  0.00    +0.000 A 
ATOM     24  H   UNL     1      25.320   7.582  51.520  0.00  0.00    +0.000 HD
BRANCH  15  26
ATOM     25  C   UNL     1      30.990   8.737  47.724  0.00  0.00    +0.000 C 
ATOM     26  O   UNL     1      29.654   8.942  47.275  0.00  0.00    +0.000 OA
ENDBRANCH  15  26
ENDBRANCH   1  20
BRANCH  12  27
ATOM     27  N   UNL     1      22.301  -0.689  52.951  0.00  0.00    +0.000 N 
ATOM     28  H   UNL     1      22.322  -1.163  52.088  0.00  0.00    +0.000 HD
BRANCH  27  29
ATOM     29  C   UNL     1      20.954  -0.427  53.553  0.00  0.00    +0.000 C 
ATOM     30  C   UNL     1      20.835   0.637  54.660  0.00  0.00    +0.000 C 
ATOM     31  C   UNL     1      20.009  -0.019  52.407  0.00  0.00    +0.000 C 
ATOM     32  C   UNL     1      20.454  -1.751  54.164  0.00  0.00    +0.000 C 
ENDBRANCH  27  29
ENDBRANCH  12  27
TORSDOF 4
ENDMDL
MODEL 2
REMARK VINA RESULT:    -8.019      4.724      7.030
REMARK INTER + INTRA:         -10.487
REMARK INTER:                 -10.355
REMARK INTRA:                  -0.133
REMARK UNBOUND:                -0.594
REMARK  Name = 
REMARK  8 active torsions:
REMARK  status: ('A' for Active; 'I' for Inactive)
REMARK    1  A    between atoms: C_1  and  O_2
REMARK    2  A    between atoms: O_2  and  C_3
REMARK    3  A    between atoms: C_8  and  C_9
REMARK    4  A    between atoms: C_20  and  N_21
REMARK    5  A    between atoms: N_21  and  C_22
REMARK    6  A    between atoms: C_22  and  C_23
REMARK    7  A    between atoms: C_22  and  C_24
REMARK    8  A    between atoms: C_22  and  C_25
REMARK                            x       y       z     vdW  Elec       q    Type
REMARK                         _______ _______ _______ _____ _____    ______ ____
ROOT
ATOM      1  C   UNL     1      23.879   2.838  52.114  0.00  0.00    +0.000 C 
ATOM      2  O   UNL     1      23.968   4.037  51.849  0.00  0.00    +0.000 OA
ATOM      3  N   UNL     1      22.663   2.157  51.957  0.00  0.00    +0.000 N 
ATOM      4  C   UNL     1      22.462   0.729  52.213  0.00  0.00    +0.000 C 
ATOM      5  C   UNL     1      21.371   0.074  51.341  0.00  0.00    +0.000 C 
ATOM      6  N   UNL     1      20.116   0.849  51.264  0.00  0.00    +0.000 N 
ATOM      7  C   UNL     1      18.964   0.272  51.783  0.00  0.00    +0.000 A 
ATOM      8  N   UNL     1      19.177  -0.724  52.689  0.00  0.00    +0.000 NA
ATOM      9  C   UNL     1      18.130  -1.367  53.244  0.00  0.00    +0.000 A 
ATOM     10  C   UNL     1      16.823  -1.021  53.017  0.00  0.00    +0.000 A 
ATOM     11  C   UNL     1      16.586   0.009  52.123  0.00  0.00    +0.000 A 
ATOM     12  C   UNL     1      17.625   0.598  51.384  0.00  0.00    +0.000 A 
ATOM     13  C   UNL     1      20.297   2.282  51.011  0.00  0.00    +0.000 C 
ATOM     14  C   UNL     1      21.426   2.934  51.857  0.00  0.00    +0.000 C 
ENDROOT
BRANCH   1  20
ATOM     15  C   UNL     1      28.900  -0.277  53.620  0.00  0.00    +0.000 A 
ATOM     16  C   UNL     1      29.294   0.997  54.027  0.00  0.00    +0.000 A 
ATOM     17  C   UNL     1      28.419   2.088  53.948  0.00  0.00    +0.000 A 
ATOM     18  C   UNL     1      27.143   1.860  53.417  0.00  0.00    +0.000 A 
ATOM     19  N   UNL     1      26.084   2.719  53.231  0.00  0.00    +0.000 N 
ATOM     20  C   UNL     1      25.058   2.102  52.541  0.00  0.00    +0.000 A 
ATOM     21  C   UNL     1      25.405   0.762  52.475  0.00  0.00    +0.000 A 
ATOM     22  C   UNL     1      26.731   0.604  52.973  0.00  0.00    +0.000 A 
ATOM     23  C   UNL     1      27.624  -0.476  53.072  0.00  0.00    +0.000 A 
ATOM     24  H   UNL     1      26.062   3.650  53.548  0.00  0.00    +0.000 HD
BRANCH  15  26
ATOM     25  C   UNL     1      29.069  -2.598  53.243  0.00  0.00    +0.000 C 
ATOM     26  O   UNL     1      29.697  -1.391  53.667  0.00  0.00    +0.000 OA
ENDBRANCH  15  26
ENDBRANCH   1  20
BRANCH  12  27
ATOM     27  N   UNL     1      17.302   1.461  50.321  0.00  0.00    +0.000 N 
ATOM     28  H   UNL     1      17.494   1.142  49.409  0.00  0.00    +0.000 HD
BRANCH  27  29
ATOM     29  C   UNL     1      16.692   2.824  50.453  0.00  0.00    +0.000 C 
ATOM     30  C   UNL     1      16.857   3.581  51.783  0.00  0.00    +0.000 C 
ATOM     31  C   UNL     1      17.286   3.703  49.336  0.00  0.00    +0.000 C 
ATOM     32  C   UNL     1      15.176   2.677  50.218  0.00  0.00    +0.000 C 
ENDBRANCH  27  29
ENDBRANCH  12  27
TORSDOF 4
ENDMDL
MODEL 3
REMARK VINA RESULT:    -7.475      1.429      2.076
REMARK INTER + INTRA:          -9.817
REMARK INTER:                  -9.582
REMARK INTRA:                  -0.235
REMARK UNBOUND:                -0.594
REMARK  Name = 
REMARK  8 active torsions:
REMARK  status: ('A' for Active; 'I' for Inactive)
REMARK    1  A    between atoms: C_1  and  O_2
REMARK    2  A    between atoms: O_2  and  C_3
REMARK    3  A    between atoms: C_8  and  C_9
REMARK    4  A    between atoms: C_20  and  N_21
REMARK    5  A    between atoms: N_21  and  C_22
REMARK    6  A    between atoms: C_22  and  C_23
REMARK    7  A    between atoms: C_22  and  C_24
REMARK    8  A    between atoms: C_22  and  C_25
REMARK                            x       y       z     vdW  Elec       q    Type
REMARK                         _______ _______ _______ _____ _____    ______ ____
ROOT
ATOM      1  C   UNL     1      24.286   6.562  49.708  0.00  0.00    +0.000 C 
ATOM      2  O   UNL     1      23.277   7.241  49.520  0.00  0.00    +0.000 OA
ATOM      3  N   UNL     1      24.186   5.238  50.159  0.00  0.00    +0.000 N 
ATOM      4  C   UNL     1      25.320   4.338  50.382  0.00  0.00    +0.000 C 
ATOM      5  C   UNL     1      25.001   2.846  50.160  0.00  0.00    +0.000 C 
ATOM      6  N   UNL     1      23.748   2.396  50.801  0.00  0.00    +0.000 N 
ATOM      7  C   UNL     1      23.839   1.436  51.802  0.00  0.00    +0.000 A 
ATOM      8  N   UNL     1      25.063   1.336  52.393  0.00  0.00    +0.000 NA
ATOM      9  C   UNL     1      25.270   0.424  53.364  0.00  0.00    +0.000 A 
ATOM     10  C   UNL     1      24.280  -0.376  53.875  0.00  0.00    +0.000 A 
ATOM     11  C   UNL     1      23.022  -0.266  53.308  0.00  0.00    +0.000 A 
ATOM     12  C   UNL     1      22.788   0.536  52.180  0.00  0.00    +0.000 A 
ATOM     13  C   UNL     1      22.601   3.286  50.592  0.00  0.00    +0.000 C 
ATOM     14  C   UNL     1      22.931   4.793  50.771  0.00  0.00    +0.000 C 
ENDROOT
BRANCH   1  20
ATOM     15  C   UNL     1      29.875   8.787  48.712  0.00  0.00    +0.000 A 
ATOM     16  C   UNL     1      29.906   7.699  47.841  0.00  0.00    +0.000 A 
ATOM     17  C   UNL     1      28.782   6.885  47.654  0.00  0.00    +0.000 A 
ATOM     18  C   UNL     1      27.634   7.183  48.398  0.00  0.00    +0.000 A 
ATOM     19  N   UNL     1      26.397   6.581  48.416  0.00  0.00    +0.000 N 
ATOM     20  C   UNL     1      25.597   7.115  49.408  0.00  0.00    +0.000 A 
ATOM     21  C   UNL     1      26.283   8.220  49.887  0.00  0.00    +0.000 A 
ATOM     22  C   UNL     1      27.581   8.246  49.299  0.00  0.00    +0.000 A 
ATOM     23  C   UNL     1      28.720   9.054  49.461  0.00  0.00    +0.000 A 
ATOM     24  H   UNL     1      26.119   5.864  47.802  0.00  0.00    +0.000 HD
BRANCH  15  26
ATOM     25  C   UNL     1      30.580  10.994  49.144  0.00  0.00    +0.000 C 
ATOM     26  O   UNL     1      30.932   9.628  48.946  0.00  0.00    +0.000 OA
ENDBRANCH  15  26
ENDBRANCH   1  20
BRANCH  12  27
ATOM     27  N   UNL     1      21.560   0.421  51.503  0.00  0.00    +0.000 N 
ATOM     28  H   UNL     1      21.580   0.025  50.602  0.00  0.00    +0.000 HD
BRANCH  27  29
ATOM     29  C   UNL     1      20.224   0.848  52.031  0.00  0.00    +0.000 C 
ATOM     30  C   UNL     1      19.140   1.284  51.029  0.00  0.00    +0.000 C 
ATOM     31  C   UNL     1      19.658  -0.325  52.853  0.00  0.00    +0.000 C 
ATOM     32  C   UNL     1      20.459   2.047  52.971  0.00  0.00    +0.000 C 
ENDBRANCH  27  29
ENDBRANCH  12  27
TORSDOF 4
ENDMDL
MODEL 4
REMARK VINA RESULT:    -7.471      3.766      8.683
REMARK INTER + INTRA:          -9.812
REMARK INTER:                  -9.386
REMARK INTRA:                  -0.426
REMARK UNBOUND:                -0.594
REMARK  Name = 
REMARK  8 active torsions:
REMARK  status: ('A' for Active; 'I' for Inactive)
REMARK    1  A    between atoms: C_1  and  O_2
REMARK    2  A    between atoms: O_2  and  C_3
REMARK    3  A    between atoms: C_8  and  C_9
REMARK    4  A    between atoms: C_20  and  N_21
REMARK    5  A    between atoms: N_21  and  C_22
REMARK    6  A    between atoms: C_22  and  C_23
REMARK    7  A    between atoms: C_22  and  C_24
REMARK    8  A    between atoms: C_22  and  C_25
REMARK                            x       y       z     vdW  Elec       q    Type
REMARK                         _______ _______ _______ _____ _____    ______ ____
ROOT
ATOM      1  C   UNL     1      22.627   3.361  52.068  0.00  0.00    +0.000 C 
ATOM      2  O   UNL     1      21.493   3.005  52.390  0.00  0.00    +0.000 OA
ATOM      3  N   UNL     1      22.837   4.591  51.427  0.00  0.00    +0.000 N 
ATOM      4  C   UNL     1      24.145   5.119  51.034  0.00  0.00    +0.000 C 
ATOM      5  C   UNL     1      24.237   6.659  51.039  0.00  0.00    +0.000 C 
ATOM      6  N   UNL     1      23.099   7.332  50.381  0.00  0.00    +0.000 N 
ATOM      7  C   UNL     1      23.360   8.088  49.245  0.00  0.00    +0.000 A 
ATOM      8  N   UNL     1      24.523   7.780  48.605  0.00  0.00    +0.000 NA
ATOM      9  C   UNL     1      24.887   8.464  47.501  0.00  0.00    +0.000 A 
ATOM     10  C   UNL     1      24.102   9.420  46.910  0.00  0.00    +0.000 A 
ATOM     11  C   UNL     1      22.901   9.725  47.529  0.00  0.00    +0.000 A 
ATOM     12  C   UNL     1      22.551   9.174  48.771  0.00  0.00    +0.000 A 
ATOM     13  C   UNL     1      21.779   6.814  50.760  0.00  0.00    +0.000 C 
ATOM     14  C   UNL     1      21.698   5.263  50.798  0.00  0.00    +0.000 C 
ENDROOT
BRANCH   1  20
ATOM     15  C   UNL     1      27.518  -0.099  53.200  0.00  0.00    +0.000 A 
ATOM     16  C   UNL     1      27.874   1.039  53.923  0.00  0.00    +0.000 A 
ATOM     17  C   UNL     1      27.005   2.132  54.031  0.00  0.00    +0.000 A 
ATOM     18  C   UNL     1      25.777   2.055  53.362  0.00  0.00    +0.000 A 
ATOM     19  N   UNL     1      24.735   2.950  53.298  0.00  0.00    +0.000 N 
ATOM     20  C   UNL     1      23.770   2.527  52.404  0.00  0.00    +0.000 A 
ATOM     21  C   UNL     1      24.125   1.234  52.054  0.00  0.00    +0.000 A 
ATOM     22  C   UNL     1      25.406   0.943  52.607  0.00  0.00    +0.000 A 
ATOM     23  C   UNL     1      26.292  -0.145  52.522  0.00  0.00    +0.000 A 
ATOM     24  H   UNL     1      24.683   3.782  53.821  0.00  0.00    +0.000 HD
BRANCH  15  26
ATOM     25  C   UNL     1      29.587  -1.122  53.678  0.00  0.00    +0.000 C 
ATOM     26  O   UNL     1      28.312  -1.207  53.050  0.00  0.00    +0.000 OA
ENDBRANCH  15  26
ENDBRANCH   1  20
BRANCH  12  27
ATOM     27  N   UNL     1      21.445   9.701  49.464  0.00  0.00    +0.000 N 
ATOM     28  H   UNL     1      21.623  10.132  50.332  0.00  0.00    +0.000 HD
BRANCH  27  29
ATOM     29  C   UNL     1      20.021   9.664  49.000  0.00  0.00    +0.000 C 
ATOM     30  C   UNL     1      19.496  10.826  48.137  0.00  0.00    +0.000 C 
ATOM     31  C   UNL     1      19.832   8.362  48.198  0.00  0.00    +0.000 C 
ATOM     32  C   UNL     1      19.126   9.610  50.254  0.00  0.00    +0.000 C 
ENDBRANCH  27  29
ENDBRANCH  12  27
TORSDOF 4
ENDMDL
MODEL 5
REMARK VINA RESULT:    -7.420      5.607     10.921
REMARK INTER + INTRA:          -9.749
REMARK INTER:                  -9.623
REMARK INTRA:                  -0.127
REMARK UNBOUND:                -0.594
REMARK  Name = 
REMARK  8 active torsions:
REMARK  status: ('A' for Active; 'I' for Inactive)
REMARK    1  A    between atoms: C_1  and  O_2
REMARK    2  A    between atoms: O_2  and  C_3
REMARK    3  A    between atoms: C_8  and  C_9
REMARK    4  A    between atoms: C_20  and  N_21
REMARK    5  A    between atoms: N_21  and  C_22
REMARK    6  A    between atoms: C_22  and  C_23
REMARK    7  A    between atoms: C_22  and  C_24
REMARK    8  A    between atoms: C_22  and  C_25
REMARK                            x       y       z     vdW  Elec       q    Type
REMARK                         _______ _______ _______ _____ _____    ______ ____
ROOT
ATOM      1  C   UNL     1      17.988  -1.460  53.279  0.00  0.00    +0.000 C 
ATOM      2  O   UNL     1      18.000  -2.450  54.011  0.00  0.00    +0.000 OA
ATOM      3  N   UNL     1      19.166  -0.744  53.021  0.00  0.00    +0.000 N 
ATOM      4  C   UNL     1      19.263   0.423  52.141  0.00  0.00    +0.000 C 
ATOM      5  C   UNL     1      20.633   0.587  51.452  0.00  0.00    +0.000 C 
ATOM      6  N   UNL     1      21.787   0.427  52.360  0.00  0.00    +0.000 N 
ATOM      7  C   UNL     1      22.617   1.524  52.556  0.00  0.00    +0.000 A 
ATOM      8  N   UNL     1      22.054   2.730  52.262  0.00  0.00    +0.000 NA
ATOM      9  C   UNL     1      22.775   3.862  52.398  0.00  0.00    +0.000 A 
ATOM     10  C   UNL     1      24.047   3.892  52.908  0.00  0.00    +0.000 A 
ATOM     11  C   UNL     1      24.625   2.679  53.241  0.00  0.00    +0.000 A 
ATOM     12  C   UNL     1      23.992   1.458  52.959  0.00  0.00    +0.000 A 
ATOM     13  C   UNL     1      21.707  -0.735  53.252  0.00  0.00    +0.000 C 
ATOM     14  C   UNL     1      20.314  -0.927  53.912  0.00  0.00    +0.000 C 
ENDROOT
BRANCH   1  20
ATOM     15  C   UNL     1      12.730  -0.064  50.526  0.00  0.00    +0.000 A 
ATOM     16  C   UNL     1      12.437   0.384  51.813  0.00  0.00    +0.000 A 
ATOM     17  C   UNL     1      13.396   0.342  52.833  0.00  0.00    +0.000 A 
ATOM     18  C   UNL     1      14.651  -0.195  52.522  0.00  0.00    +0.000 A 
ATOM     19  N   UNL     1      15.776  -0.351  53.299  0.00  0.00    +0.000 N 
ATOM     20  C   UNL     1      16.752  -1.059  52.626  0.00  0.00    +0.000 A 
ATOM     21  C   UNL     1      16.301  -1.170  51.320  0.00  0.00    +0.000 A 
ATOM     22  C   UNL     1      14.965  -0.678  51.253  0.00  0.00    +0.000 A 
ATOM     23  C   UNL     1      13.988  -0.616  50.244  0.00  0.00    +0.000 A 
ATOM     24  H   UNL     1      15.871  -0.003  54.215  0.00  0.00    +0.000 HD
BRANCH  15  26
ATOM     25  C   UNL     1      12.359  -0.576  48.255  0.00  0.00    +0.000 C 
ATOM     26  O   UNL     1      11.847  -0.054  49.477  0.00  0.00    +0.000 OA
ENDBRANCH  15  26
ENDBRANCH   1  20
BRANCH  12  27
ATOM     27  N   UNL     1      24.723   0.263  53.092  0.00  0.00    +0.000 N 
ATOM     28  H   UNL     1      24.228  -0.535  53.390  0.00  0.00    +0.000 HD
BRANCH  27  29
ATOM     29  C   UNL     1      26.188   0.096  52.822  0.00  0.00    +0.000 C 
ATOM     30  C   UNL     1      26.835   0.947  51.714  0.00  0.00    +0.000 C 
ATOM     31  C   UNL     1      26.934   0.392  54.137  0.00  0.00    +0.000 C 
ATOM     32  C   UNL     1      26.423  -1.378  52.437  0.00  0.00    +0.000 C 
ENDBRANCH  27  29
ENDBRANCH  12  27
TORSDOF 4
ENDMDL
MODEL 6
REMARK VINA RESULT:    -7.370      5.230      7.982
REMARK INTER + INTRA:          -9.687
REMARK INTER:                  -9.254
REMARK INTRA:                  -0.433
REMARK UNBOUND:                -0.594
REMARK  Name = 
REMARK  8 active torsions:
REMARK  status: ('A' for Active; 'I' for Inactive)
REMARK    1  A    between atoms: C_1  and  O_2
REMARK    2  A    between atoms: O_2  and  C_3
REMARK    3  A    between atoms: C_8  and  C_9
REMARK    4  A    between atoms: C_20  and  N_21
REMARK    5  A    between atoms: N_21  and  C_22
REMARK    6  A    between atoms: C_22  and  C_23
REMARK    7  A    between atoms: C_22  and  C_24
REMARK    8  A    between atoms: C_22  and  C_25
REMARK                            x       y       z     vdW  Elec       q    Type
REMARK                         _______ _______ _______ _____ _____    ______ ____
ROOT
ATOM      1  C   UNL     1      22.020   0.813  53.234  0.00  0.00    +0.000 C 
ATOM      2  O   UNL     1      21.382   0.127  54.033  0.00  0.00    +0.000 OA
ATOM      3  N   UNL     1      21.370   1.738  52.404  0.00  0.00    +0.000 N 
ATOM      4  C   UNL     1      22.039   2.622  51.447  0.00  0.00    +0.000 C 
ATOM      5  C   UNL     1      21.317   3.964  51.208  0.00  0.00    +0.000 C 
ATOM      6  N   UNL     1      19.863   3.833  50.985  0.00  0.00    +0.000 N 
ATOM      7  C   UNL     1      19.359   4.223  49.749  0.00  0.00    +0.000 A 
ATOM      8  N   UNL     1      20.274   4.259  48.740  0.00  0.00    +0.000 NA
ATOM      9  C   UNL     1      19.899   4.642  47.503  0.00  0.00    +0.000 A 
ATOM     10  C   UNL     1      18.602   4.923  47.158  0.00  0.00    +0.000 A 
ATOM     11  C   UNL     1      17.652   4.861  48.164  0.00  0.00    +0.000 A 
ATOM     12  C   UNL     1      18.009   4.641  49.503  0.00  0.00    +0.000 A 
ATOM     13  C   UNL     1      19.175   2.949  51.931  0.00  0.00    +0.000 C 
ATOM     14  C   UNL     1      19.924   1.616  52.207  0.00  0.00    +0.000 C 
ENDROOT
BRANCH   1  20
ATOM     15  C   UNL     1      28.103   0.409  53.328  0.00  0.00    +0.000 A 
ATOM     16  C   UNL     1      27.792  -0.928  53.083  0.00  0.00    +0.000 A 
ATOM     17  C   UNL     1      26.466  -1.343  52.900  0.00  0.00    +0.000 A 
ATOM     18  C   UNL     1      25.462  -0.373  53.003  0.00  0.00    +0.000 A 
ATOM     19  N   UNL     1      24.098  -0.479  52.861  0.00  0.00    +0.000 N 
ATOM     20  C   UNL     1      23.469   0.708  53.187  0.00  0.00    +0.000 A 
ATOM     21  C   UNL     1      24.485   1.639  53.339  0.00  0.00    +0.000 A 
ATOM     22  C   UNL     1      25.739   0.965  53.277  0.00  0.00    +0.000 A 
ATOM     23  C   UNL     1      27.078   1.359  53.447  0.00  0.00    +0.000 A 
ATOM     24  H   UNL     1      23.631  -1.294  52.565  0.00  0.00    +0.000 HD
BRANCH  15  26
ATOM     25  C   UNL     1      29.469   1.996  54.411  0.00  0.00    +0.000 C 
ATOM     26  O   UNL     1      29.372   0.892  53.517  0.00  0.00    +0.000 OA
ENDBRANCH  15  26
ENDBRANCH   1  20
BRANCH  12  27
ATOM     27  N   UNL     1      17.041   4.831  50.507  0.00  0.00    +0.000 N 
ATOM     28  H   UNL     1      17.146   5.618  51.089  0.00  0.00    +0.000 HD
BRANCH  27  29
ATOM     29  C   UNL     1      15.865   3.940  50.771  0.00  0.00    +0.000 C 
ATOM     30  C   UNL     1      15.957   2.458  50.365  0.00  0.00    +0.000 C 
ATOM     31  C   UNL     1      15.577   3.995  52.283  0.00  0.00    +0.000 C 
ATOM     32  C   UNL     1      14.659   4.528  50.013  0.00  0.00    +0.000 C 
ENDBRANCH  27  29
ENDBRANCH  12  27
TORSDOF 4
ENDMDL
MODEL 7
REMARK VINA RESULT:    -7.322      1.700      2.148
REMARK INTER + INTRA:          -9.628
REMARK INTER:                  -9.770
REMARK INTRA:                   0.141
REMARK UNBOUND:                -0.594
REMARK  Name = 
REMARK  8 active torsions:
REMARK  status: ('A' for Active; 'I' for Inactive)
REMARK    1  A    between atoms: C_1  and  O_2
REMARK    2  A    between atoms: O_2  and  C_3
REMARK    3  A    between atoms: C_8  and  C_9
REMARK    4  A    between atoms: C_20  and  N_21
REMARK    5  A    between atoms: N_21  and  C_22
REMARK    6  A    between atoms: C_22  and  C_23
REMARK    7  A    between atoms: C_22  and  C_24
REMARK    8  A    between atoms: C_22  and  C_25
REMARK                            x       y       z     vdW  Elec       q    Type
REMARK                         _______ _______ _______ _____ _____    ______ ____
ROOT
ATOM      1  C   UNL     1      22.503   6.392  50.902  0.00  0.00    +0.000 C 
ATOM      2  O   UNL     1      21.354   6.800  51.070  0.00  0.00    +0.000 OA
ATOM      3  N   UNL     1      22.848   5.069  51.210  0.00  0.00    +0.000 N 
ATOM      4  C   UNL     1      24.174   4.479  51.016  0.00  0.00    +0.000 C 
ATOM      5  C   UNL     1      24.160   2.965  50.722  0.00  0.00    +0.000 C 
ATOM      6  N   UNL     1      23.286   2.185  51.621  0.00  0.00    +0.000 N 
ATOM      7  C   UNL     1      23.883   1.238  52.446  0.00  0.00    +0.000 A 
ATOM      8  N   UNL     1      25.213   1.428  52.670  0.00  0.00    +0.000 NA
ATOM      9  C   UNL     1      25.898   0.558  53.440  0.00  0.00    +0.000 A 
ATOM     10  C   UNL     1      25.313  -0.488  54.105  0.00  0.00    +0.000 A 
ATOM     11  C   UNL     1      23.955  -0.679  53.914  0.00  0.00    +0.000 A 
ATOM     12  C   UNL     1      23.225   0.085  52.989  0.00  0.00    +0.000 A 
ATOM     13  C   UNL     1      21.954   2.761  51.831  0.00  0.00    +0.000 C 
ATOM     14  C   UNL     1      21.963   4.294  52.084  0.00  0.00    +0.000 C 
ENDROOT
BRANCH   1  20
ATOM     15  C   UNL     1      26.551  10.317  48.579  0.00  0.00    +0.000 A 
ATOM     16  C   UNL     1      27.308   9.809  49.634  0.00  0.00    +0.000 A 
ATOM     17  C   UNL     1      26.817   8.784  50.454  0.00  0.00    +0.000 A 
ATOM     18  C   UNL     1      25.526   8.309  50.195  0.00  0.00    +0.000 A 
ATOM     19  N   UNL     1      24.797   7.318  50.812  0.00  0.00    +0.000 N 
ATOM     20  C   UNL     1      23.505   7.273  50.323  0.00  0.00    +0.000 A 
ATOM     21  C   UNL     1      23.490   8.124  49.229  0.00  0.00    +0.000 A 
ATOM     22  C   UNL     1      24.733   8.817  49.168  0.00  0.00    +0.000 A 
ATOM     23  C   UNL     1      25.252   9.839  48.353  0.00  0.00    +0.000 A 
ATOM     24  H   UNL     1      25.150   6.720  51.509  0.00  0.00    +0.000 HD
BRANCH  15  26
ATOM     25  C   UNL     1      25.914  12.115  47.195  0.00  0.00    +0.000 C 
ATOM     26  O   UNL     1      26.962  11.316  47.735  0.00  0.00    +0.000 OA
ENDBRANCH  15  26
ENDBRANCH   1  20
BRANCH  12  27
ATOM     27  N   UNL     1      21.915  -0.310  52.660  0.00  0.00    +0.000 N 
ATOM     28  H   UNL     1      21.724  -0.481  51.709  0.00  0.00    +0.000 HD
BRANCH  27  29
ATOM     29  C   UNL     1      20.786  -0.495  53.627  0.00  0.00    +0.000 C 
ATOM     30  C   UNL     1      19.344  -0.485  53.088  0.00  0.00    +0.000 C 
ATOM     31  C   UNL     1      21.009  -1.839  54.344  0.00  0.00    +0.000 C 
ATOM     32  C   UNL     1      20.873   0.643  54.664  0.00  0.00    +0.000 C 
ENDBRANCH  27  29
ENDBRANCH  12  27
TORSDOF 4
ENDMDL
MODEL 8
REMARK VINA RESULT:    -7.278      2.567      4.958
REMARK INTER + INTRA:          -9.573
REMARK INTER:                  -9.026
REMARK INTRA:                  -0.547
REMARK UNBOUND:                -0.594
REMARK  Name = 
REMARK  8 active torsions:
REMARK  status: ('A' for Active; 'I' for Inactive)
REMARK    1  A    between atoms: C_1  and  O_2
REMARK    2  A    between atoms: O_2  and  C_3
REMARK    3  A    between atoms: C_8  and  C_9
REMARK    4  A    between atoms: C_20  and  N_21
REMARK    5  A    between atoms: N_21  and  C_22
REMARK    6  A    between atoms: C_22  and  C_23
REMARK    7  A    between atoms: C_22  and  C_24
REMARK    8  A    between atoms: C_22  and  C_25
REMARK                            x       y       z     vdW  Elec       q    Type
REMARK                         _______ _______ _______ _____ _____    ______ ____
ROOT
ATOM      1  C   UNL     1      28.773   6.105  48.407  0.00  0.00    +0.000 C 
ATOM      2  O   UNL     1      29.708   5.322  48.237  0.00  0.00    +0.000 OA
ATOM      3  N   UNL     1      27.523   5.645  48.844  0.00  0.00    +0.000 N 
ATOM      4  C   UNL     1      26.360   6.496  49.106  0.00  0.00    +0.000 C 
ATOM      5  C   UNL     1      25.413   5.960  50.199  0.00  0.00    +0.000 C 
ATOM      6  N   UNL     1      25.084   4.527  50.061  0.00  0.00    +0.000 N 
ATOM      7  C   UNL     1      23.758   4.185  49.825  0.00  0.00    +0.000 A 
ATOM      8  N   UNL     1      22.989   5.185  49.310  0.00  0.00    +0.000 NA
ATOM      9  C   UNL     1      21.682   4.970  49.060  0.00  0.00    +0.000 A 
ATOM     10  C   UNL     1      21.072   3.751  49.212  0.00  0.00    +0.000 A 
ATOM     11  C   UNL     1      21.846   2.714  49.705  0.00  0.00    +0.000 A 
ATOM     12  C   UNL     1      23.162   2.920  50.148  0.00  0.00    +0.000 A 
ATOM     13  C   UNL     1      26.236   3.658  49.794  0.00  0.00    +0.000 C 
ATOM     14  C   UNL     1      27.214   4.218  48.725  0.00  0.00    +0.000 C 
ENDROOT
BRANCH   1  20
ATOM     15  C   UNL     1      29.359  12.129  47.668  0.00  0.00    +0.000 A 
ATOM     16  C   UNL     1      30.182  11.957  48.781  0.00  0.00    +0.000 A 
ATOM     17  C   UNL     1      30.435  10.684  49.307  0.00  0.00    +0.000 A 
ATOM     18  C   UNL     1      29.807   9.592  48.695  0.00  0.00    +0.000 A 
ATOM     19  N   UNL     1      29.875   8.247  48.977  0.00  0.00    +0.000 N 
ATOM     20  C   UNL     1      28.978   7.531  48.207  0.00  0.00    +0.000 A 
ATOM     21  C   UNL     1      28.484   8.430  47.275  0.00  0.00    +0.000 A 
ATOM     22  C   UNL     1      28.955   9.735  47.601  0.00  0.00    +0.000 A 
ATOM     23  C   UNL     1      28.725  11.023  47.085  0.00  0.00    +0.000 A 
ATOM     24  H   UNL     1      30.483   7.848  49.640  0.00  0.00    +0.000 HD
BRANCH  15  26
ATOM     25  C   UNL     1      27.961  14.027  47.678  0.00  0.00    +0.000 C 
ATOM     26  O   UNL     1      29.065  13.340  47.096  0.00  0.00    +0.000 OA
ENDBRANCH  15  26
ENDBRANCH   1  20
BRANCH  12  27
ATOM     27  N   UNL     1      23.811   1.896  50.860  0.00  0.00    +0.000 N 
ATOM     28  H   UNL     1      24.246   1.188  50.332  0.00  0.00    +0.000 HD
BRANCH  27  29
ATOM     29  C   UNL     1      23.901   1.786  52.353  0.00  0.00    +0.000 C 
ATOM     30  C   UNL     1      24.292   3.035  53.162  0.00  0.00    +0.000 C 
ATOM     31  C   UNL     1      22.527   1.309  52.861  0.00  0.00    +0.000 C 
ATOM     32  C   UNL     1      24.954   0.707  52.675  0.00  0.00    +0.000 C 
ENDBRANCH  27  29
ENDBRANCH  12  27
TORSDOF 4
ENDMDL
MODEL 9
REMARK VINA RESULT:    -7.277      2.406      4.010
REMARK INTER + INTRA:          -9.572
REMARK INTER:                  -9.818
REMARK INTRA:                   0.247
REMARK UNBOUND:                -0.594
REMARK  Name = 
REMARK  8 active torsions:
REMARK  status: ('A' for Active; 'I' for Inactive)
REMARK    1  A    between atoms: C_1  and  O_2
REMARK    2  A    between atoms: O_2  and  C_3
REMARK    3  A    between atoms: C_8  and  C_9
REMARK    4  A    between atoms: C_20  and  N_21
REMARK    5  A    between atoms: N_21  and  C_22
REMARK    6  A    between atoms: C_22  and  C_23
REMARK    7  A    between atoms: C_22  and  C_24
REMARK    8  A    between atoms: C_22  and  C_25
REMARK                            x       y       z     vdW  Elec       q    Type
REMARK                         _______ _______ _______ _____ _____    ______ ____
ROOT
ATOM      1  C   UNL     1      26.159   3.652  49.805  0.00  0.00    +0.000 C 
ATOM      2  O   UNL     1      26.849   2.642  49.946  0.00  0.00    +0.000 OA
ATOM      3  N   UNL     1      24.850   3.703  50.305  0.00  0.00    +0.000 N 
ATOM      4  C   UNL     1      23.963   4.865  50.219  0.00  0.00    +0.000 C 
ATOM      5  C   UNL     1      22.952   4.981  51.378  0.00  0.00    +0.000 C 
ATOM      6  N   UNL     1      22.254   3.719  51.696  0.00  0.00    +0.000 N 
ATOM      7  C   UNL     1      20.876   3.677  51.519  0.00  0.00    +0.000 A 
ATOM      8  N   UNL     1      20.377   4.618  50.669  0.00  0.00    +0.000 NA
ATOM      9  C   UNL     1      19.050   4.682  50.437  0.00  0.00    +0.000 A 
ATOM     10  C   UNL     1      18.149   3.782  50.946  0.00  0.00    +0.000 A 
ATOM     11  C   UNL     1      18.641   2.799  51.787  0.00  0.00    +0.000 A 
ATOM     12  C   UNL     1      19.982   2.788  52.204  0.00  0.00    +0.000 A 
ATOM     13  C   UNL     1      23.125   2.542  51.784  0.00  0.00    +0.000 C 
ATOM     14  C   UNL     1      24.173   2.448  50.641  0.00  0.00    +0.000 C 
ENDROOT
BRANCH   1  20
ATOM     15  C   UNL     1      28.487   8.735  47.370  0.00  0.00    +0.000 A 
ATOM     16  C   UNL     1      29.657   7.988  47.496  0.00  0.00    +0.000 A 
ATOM     17  C   UNL     1      29.630   6.667  47.961  0.00  0.00    +0.000 A 
ATOM     18  C   UNL     1      28.388   6.133  48.326  0.00  0.00    +0.000 A 
ATOM     19  N   UNL     1      28.054   4.883  48.795  0.00  0.00    +0.000 N 
ATOM     20  C   UNL     1      26.724   4.829  49.164  0.00  0.00    +0.000 A 
ATOM     21  C   UNL     1      26.164   6.018  48.721  0.00  0.00    +0.000 A 
ATOM     22  C   UNL     1      27.204   6.864  48.240  0.00  0.00    +0.000 A 
ATOM     23  C   UNL     1      27.257   8.185  47.761  0.00  0.00    +0.000 A 
ATOM     24  H   UNL     1      28.681   4.127  48.859  0.00  0.00    +0.000 HD
BRANCH  15  26
ATOM     25  C   UNL     1      29.182  10.964  47.694  0.00  0.00    +0.000 C 
ATOM     26  O   UNL     1      28.432  10.030  46.923  0.00  0.00    +0.000 OA
ENDBRANCH  15  26
ENDBRANCH   1  20
BRANCH  12  27
ATOM     27  N   UNL     1      20.367   1.920  53.242  0.00  0.00    +0.000 N 
ATOM     28  H   UNL     1      20.580   2.328  54.113  0.00  0.00    +0.000 HD
BRANCH  27  29
ATOM     29  C   UNL     1      20.483   0.429  53.141  0.00  0.00    +0.000 C 
ATOM     30  C   UNL     1      19.228  -0.427  53.387  0.00  0.00    +0.000 C 
ATOM     31  C   UNL     1      21.003   0.104  51.728  0.00  0.00    +0.000 C 
ATOM     32  C   UNL     1      21.533  -0.025  54.174  0.00  0.00    +0.000 C 
ENDBRANCH  27  29
ENDBRANCH  12  27
TORSDOF 4
ENDMDL
