MODEL 1
REMARK VINA RESULT:    -7.427      0.000      0.000
REMARK INTER + INTRA:          -8.949
REMARK INTER:                  -8.512
REMARK INTRA:                  -0.437
REMARK UNBOUND:                -0.437
REMARK  Name = 
REMARK  4 active torsions:
REMARK  status: ('A' for Active; 'I' for Inactive)
REMARK    1  A    between atoms: C_1  and  C_2
REMARK    2  A    between atoms: C_10  and  C_11
REMARK    3  A    between atoms: C_14  and  N_15
REMARK    4  A    between atoms: N_22  and  C_23
REMARK                            x       y       z     vdW  Elec       q    Type
REMARK                         _______ _______ _______ _____ _____    ______ ____
ROOT
ATOM      1  C   UNL     1      19.145   3.048  47.035  0.00  0.00    +0.000 C 
ATOM      2  C   UNL     1      19.226   2.372  48.407  0.00  0.00    +0.000 C 
ATOM      3  C   UNL     1      20.640   1.831  48.693  0.00  0.00    +0.000 C 
ATOM      4  C   UNL     1      20.875   1.634  50.172  0.00  0.00    +0.000 A 
ATOM      5  C   UNL     1      21.031   0.362  50.740  0.00  0.00    +0.000 A 
ATOM      6  C   UNL     1      21.155   0.284  52.115  0.00  0.00    +0.000 A 
ATOM      7  C   UNL     1      21.158   1.399  52.919  0.00  0.00    +0.000 A 
ATOM      8  C   UNL     1      21.027   2.664  52.406  0.00  0.00    +0.000 A 
ATOM      9  C   UNL     1      20.875   2.770  51.019  0.00  0.00    +0.000 A 
ATOM     10  C   UNL     1      20.596   4.120  50.456  0.00  0.00    +0.000 C 
ATOM     11  N   UNL     1      19.496   4.392  49.806  0.00  0.00    +0.000 NA
ATOM     12  N   UNL     1      18.730   3.281  49.460  0.00  0.00    +0.000 N 
ATOM     13  C   UNL     1      17.431   3.083  49.967  0.00  0.00    +0.000 C 
ATOM     14  O   UNL     1      16.736   2.133  49.613  0.00  0.00    +0.000 OA
ATOM     15  N   UNL     1      17.066   4.040  50.888  0.00  0.00    +0.000 N 
ATOM     16  O   UNL     1      21.270   1.095  54.241  0.00  0.00    +0.000 OA
ATOM     17  C   UNL     1      21.193  -0.340  54.183  0.00  0.00    +0.000 C 
ATOM     18  O   UNL     1      21.262  -0.864  52.839  0.00  0.00    +0.000 OA
ATOM     19  H   UNL     1      17.756   4.698  51.134  0.00  0.00    +0.000 HD
ENDROOT
BRANCH  10  20
ATOM     20  C   UNL     1      21.611   5.181  50.733  0.00  0.00    +0.000 A 
ATOM     21  C   UNL     1      21.292   6.527  50.498  0.00  0.00    +0.000 A 
ATOM     22  C   UNL     1      22.266   7.518  50.642  0.00  0.00    +0.000 A 
ATOM     23  C   UNL     1      23.573   7.178  50.985  0.00  0.00    +0.000 A 
ATOM     24  C   UNL     1      23.850   5.852  51.341  0.00  0.00    +0.000 A 
ATOM     25  C   UNL     1      22.881   4.850  51.204  0.00  0.00    +0.000 A 
BRANCH  23  26
ATOM     26  N   UNL     1      24.527   8.182  51.180  0.00  0.00    +0.000 N 
ATOM     27  H   UNL     1      24.425   8.820  51.923  0.00  0.00    +0.000 HD
ATOM     28  H   UNL     1      25.300   8.252  50.573  0.00  0.00    +0.000 HD
ENDBRANCH  23  26
ENDBRANCH  10  20
BRANCH  15  29
ATOM     29  C   UNL     1      15.812   4.180  51.516  0.00  0.00    +0.000 A 
ATOM     30  C   UNL     1      15.641   4.210  52.904  0.00  0.00    +0.000 A 
ATOM     31  C   UNL     1      14.361   4.208  53.468  0.00  0.00    +0.000 A 
ATOM     32  C   UNL     1      13.239   4.200  52.648  0.00  0.00    +0.000 A 
ATOM     33  C   UNL     1      13.397   4.238  51.264  0.00  0.00    +0.000 A 
ATOM     34  C   UNL     1      14.677   4.240  50.700  0.00  0.00    +0.000 A 
ENDBRANCH  15  29
TORSDOF 3
ENDMDL
MODEL 2
REMARK VINA RESULT:    -7.052      4.024      5.653
REMARK INTER + INTRA:          -8.520
REMARK INTER:                  -7.567
REMARK INTRA:                  -0.953
REMARK UNBOUND:                -0.437
REMARK  Name = 
REMARK  4 active torsions:
REMARK  status: ('A' for Active; 'I' for Inactive)
REMARK    1  A    between atoms: C_1  and  C_2
REMARK    2  A    between atoms: C_10  and  C_11
REMARK    3  A    between atoms: C_14  and  N_15
REMARK    4  A    between atoms: N_22  and  C_23
REMARK                            x       y       z     vdW  Elec       q    Type
REMARK                         _______ _______ _______ _____ _____    ______ ____
ROOT
ATOM      1  C   UNL     1      16.903   4.795  48.651  0.00  0.00    +0.000 C 
ATOM      2  C   UNL     1      16.109   3.489  48.732  0.00  0.00    +0.000 C 
ATOM      3  C   UNL     1      16.715   2.396  47.829  0.00  0.00    +0.000 C 
ATOM      4  C   UNL     1      16.289   1.013  48.262  0.00  0.00    +0.000 A 
ATOM      5  C   UNL     1      15.447   0.213  47.478  0.00  0.00    +0.000 A 
ATOM      6  C   UNL     1      15.047  -1.003  48.002  0.00  0.00    +0.000 A 
ATOM      7  C   UNL     1      15.467  -1.449  49.234  0.00  0.00    +0.000 A 
ATOM      8  C   UNL     1      16.305  -0.708  50.026  0.00  0.00    +0.000 A 
ATOM      9  C   UNL     1      16.707   0.537  49.530  0.00  0.00    +0.000 A 
ATOM     10  C   UNL     1      17.506   1.414  50.429  0.00  0.00    +0.000 C 
ATOM     11  N   UNL     1      17.082   2.587  50.819  0.00  0.00    +0.000 NA
ATOM     12  N   UNL     1      15.962   3.061  50.138  0.00  0.00    +0.000 N 
ATOM     13  C   UNL     1      14.736   3.292  50.790  0.00  0.00    +0.000 C 
ATOM     14  O   UNL     1      13.767   3.766  50.199  0.00  0.00    +0.000 OA
ATOM     15  N   UNL     1      14.755   2.914  52.115  0.00  0.00    +0.000 N 
ATOM     16  O   UNL     1      14.938  -2.659  49.564  0.00  0.00    +0.000 OA
ATOM     17  C   UNL     1      14.029  -2.852  48.466  0.00  0.00    +0.000 C 
ATOM     18  O   UNL     1      14.193  -1.882  47.409  0.00  0.00    +0.000 OA
ATOM     19  H   UNL     1      15.576   2.474  52.434  0.00  0.00    +0.000 HD
ENDROOT
BRANCH  10  20
ATOM     20  C   UNL     1      18.798   0.857  50.930  0.00  0.00    +0.000 A 
ATOM     21  C   UNL     1      18.879   0.350  52.235  0.00  0.00    +0.000 A 
ATOM     22  C   UNL     1      20.106  -0.067  52.756  0.00  0.00    +0.000 A 
ATOM     23  C   UNL     1      21.270   0.047  51.998  0.00  0.00    +0.000 A 
ATOM     24  C   UNL     1      21.160   0.432  50.655  0.00  0.00    +0.000 A 
ATOM     25  C   UNL     1      19.935   0.850  50.121  0.00  0.00    +0.000 A 
BRANCH  23  26
ATOM     26  N   UNL     1      22.484  -0.425  52.507  0.00  0.00    +0.000 N 
ATOM     27  H   UNL     1      22.531  -1.318  52.919  0.00  0.00    +0.000 HD
ATOM     28  H   UNL     1      23.291   0.136  52.454  0.00  0.00    +0.000 HD
ENDBRANCH  23  26
ENDBRANCH  10  20
BRANCH  15  29
ATOM     29  C   UNL     1      13.728   3.088  53.063  0.00  0.00    +0.000 A 
ATOM     30  C   UNL     1      13.355   4.333  53.580  0.00  0.00    +0.000 A 
ATOM     31  C   UNL     1      12.426   4.427  54.622  0.00  0.00    +0.000 A 
ATOM     32  C   UNL     1      11.842   3.277  55.139  0.00  0.00    +0.000 A 
ATOM     33  C   UNL     1      12.154   2.037  54.586  0.00  0.00    +0.000 A 
ATOM     34  C   UNL     1      13.084   1.943  53.545  0.00  0.00    +0.000 A 
ENDBRANCH  15  29
TORSDOF 3
ENDMDL
MODEL 3
REMARK VINA RESULT:    -6.664      2.751      6.942
REMARK INTER + INTRA:          -8.075
REMARK INTER:                  -7.407
REMARK INTRA:                  -0.668
REMARK UNBOUND:                -0.437
REMARK  Name = 
REMARK  4 active torsions:
REMARK  status: ('A' for Active; 'I' for Inactive)
REMARK    1  A    between atoms: C_1  and  C_2
REMARK    2  A    between atoms: C_10  and  C_11
REMARK    3  A    between atoms: C_14  and  N_15
REMARK    4  A    between atoms: N_22  and  C_23
REMARK                            x       y       z     vdW  Elec       q    Type
REMARK                         _______ _______ _______ _____ _____    ______ ____
ROOT
ATOM      1  C   UNL     1      23.078   1.189  47.493  0.00  0.00    +0.000 C 
ATOM      2  C   UNL     1      21.979   2.072  48.091  0.00  0.00    +0.000 C 
ATOM      3  C   UNL     1      20.721   1.255  48.446  0.00  0.00    +0.000 C 
ATOM      4  C   UNL     1      19.862   1.966  49.466  0.00  0.00    +0.000 A 
ATOM      5  C   UNL     1      18.593   2.470  49.150  0.00  0.00    +0.000 A 
ATOM      6  C   UNL     1      17.923   3.179  50.130  0.00  0.00    +0.000 A 
ATOM      7  C   UNL     1      18.446   3.375  51.387  0.00  0.00    +0.000 A 
ATOM      8  C   UNL     1      19.675   2.884  51.745  0.00  0.00    +0.000 A 
ATOM      9  C   UNL     1      20.385   2.182  50.765  0.00  0.00    +0.000 A 
ATOM     10  C   UNL     1      21.775   1.759  51.090  0.00  0.00    +0.000 C 
ATOM     11  N   UNL     1      22.811   2.184  50.417  0.00  0.00    +0.000 NA
ATOM     12  N   UNL     1      22.505   2.850  49.231  0.00  0.00    +0.000 N 
ATOM     13  C   UNL     1      22.828   4.206  49.033  0.00  0.00    +0.000 C 
ATOM     14  O   UNL     1      22.611   4.774  47.964  0.00  0.00    +0.000 OA
ATOM     15  N   UNL     1      23.376   4.794  50.151  0.00  0.00    +0.000 N 
ATOM     16  O   UNL     1      17.632   4.117  52.186  0.00  0.00    +0.000 OA
ATOM     17  C   UNL     1      16.609   4.483  51.244  0.00  0.00    +0.000 C 
ATOM     18  O   UNL     1      16.711   3.783  49.985  0.00  0.00    +0.000 OA
ATOM     19  H   UNL     1      23.418   4.238  50.963  0.00  0.00    +0.000 HD
ENDROOT
BRANCH  10  20
ATOM     20  C   UNL     1      21.941   0.870  52.279  0.00  0.00    +0.000 A 
ATOM     21  C   UNL     1      23.201   0.744  52.883  0.00  0.00    +0.000 A 
ATOM     22  C   UNL     1      23.397  -0.170  53.922  0.00  0.00    +0.000 A 
ATOM     23  C   UNL     1      22.354  -0.991  54.346  0.00  0.00    +0.000 A 
ATOM     24  C   UNL     1      21.072  -0.769  53.827  0.00  0.00    +0.000 A 
ATOM     25  C   UNL     1      20.863   0.146  52.787  0.00  0.00    +0.000 A 
BRANCH  23  26
ATOM     26  N   UNL     1      22.546  -1.862  55.423  0.00  0.00    +0.000 N 
ATOM     27  H   UNL     1      22.721  -1.502  56.322  0.00  0.00    +0.000 HD
ATOM     28  H   UNL     1      22.505  -2.836  55.281  0.00  0.00    +0.000 HD
ENDBRANCH  23  26
ENDBRANCH  10  20
BRANCH  15  29
ATOM     29  C   UNL     1      23.882   6.104  50.260  0.00  0.00    +0.000 A 
ATOM     30  C   UNL     1      23.074   7.245  50.302  0.00  0.00    +0.000 A 
ATOM     31  C   UNL     1      23.639   8.525  50.268  0.00  0.00    +0.000 A 
ATOM     32  C   UNL     1      25.020   8.675  50.217  0.00  0.00    +0.000 A 
ATOM     33  C   UNL     1      25.837   7.546  50.244  0.00  0.00    +0.000 A 
ATOM     34  C   UNL     1      25.272   6.267  50.277  0.00  0.00    +0.000 A 
ENDBRANCH  15  29
TORSDOF 3
ENDMDL
MODEL 4
REMARK VINA RESULT:    -6.238      4.448      8.037
REMARK INTER + INTRA:          -7.587
REMARK INTER:                  -6.575
REMARK INTRA:                  -1.012
REMARK UNBOUND:                -0.437
REMARK  Name = 
REMARK  4 active torsions:
REMARK  status: ('A' for Active; 'I' for Inactive)
REMARK    1  A    between atoms: C_1  and  C_2
REMARK    2  A    between atoms: C_10  and  C_11
REMARK    3  A    between atoms: C_14  and  N_15
REMARK    4  A    between atoms: N_22  and  C_23
REMARK                            x       y       z     vdW  Elec       q    Type
REMARK                         _______ _______ _______ _____ _____    ______ ____
ROOT
ATOM      1  C   UNL     1      23.913   5.653  54.039  0.00  0.00    +0.000 C 
ATOM      2  C   UNL     1      23.437   4.627  53.007  0.00  0.00    +0.000 C 
ATOM      3  C   UNL     1      22.470   5.255  51.984  0.00  0.00    +0.000 C 
ATOM      4  C   UNL     1      22.397   4.442  50.712  0.00  0.00    +0.000 A 
ATOM      5  C   UNL     1      21.238   3.751  50.335  0.00  0.00    +0.000 A 
ATOM      6  C   UNL     1      21.300   2.966  49.198  0.00  0.00    +0.000 A 
ATOM      7  C   UNL     1      22.436   2.872  48.429  0.00  0.00    +0.000 A 
ATOM      8  C   UNL     1      23.586   3.546  48.749  0.00  0.00    +0.000 A 
ATOM      9  C   UNL     1      23.559   4.328  49.909  0.00  0.00    +0.000 A 
ATOM     10  C   UNL     1      24.834   4.958  50.348  0.00  0.00    +0.000 C 
ATOM     11  N   UNL     1      25.393   4.679  51.496  0.00  0.00    +0.000 NA
ATOM     12  N   UNL     1      24.591   3.955  52.377  0.00  0.00    +0.000 N 
ATOM     13  C   UNL     1      24.935   2.659  52.804  0.00  0.00    +0.000 C 
ATOM     14  O   UNL     1      24.257   2.047  53.627  0.00  0.00    +0.000 OA
ATOM     15  N   UNL     1      26.071   2.177  52.191  0.00  0.00    +0.000 N 
ATOM     16  O   UNL     1      22.286   2.032  47.369  0.00  0.00    +0.000 OA
ATOM     17  C   UNL     1      20.978   1.502  47.642  0.00  0.00    +0.000 C 
ATOM     18  O   UNL     1      20.294   2.188  48.713  0.00  0.00    +0.000 OA
ATOM     19  H   UNL     1      26.467   2.747  51.492  0.00  0.00    +0.000 HD
ENDROOT
BRANCH  10  20
ATOM     20  C   UNL     1      25.492   5.882  49.375  0.00  0.00    +0.000 A 
ATOM     21  C   UNL     1      26.778   5.591  48.900  0.00  0.00    +0.000 A 
ATOM     22  C   UNL     1      27.451   6.502  48.082  0.00  0.00    +0.000 A 
ATOM     23  C   UNL     1      26.867   7.724  47.757  0.00  0.00    +0.000 A 
ATOM     24  C   UNL     1      25.535   7.951  48.129  0.00  0.00    +0.000 A 
ATOM     25  C   UNL     1      24.850   7.044  48.947  0.00  0.00    +0.000 A 
BRANCH  23  26
ATOM     26  N   UNL     1      27.525   8.605  46.893  0.00  0.00    +0.000 N 
ATOM     27  H   UNL     1      28.466   8.447  46.652  0.00  0.00    +0.000 HD
ATOM     28  H   UNL     1      27.047   9.383  46.526  0.00  0.00    +0.000 HD
ENDBRANCH  23  26
ENDBRANCH  10  20
BRANCH  15  29
ATOM     29  C   UNL     1      26.727   0.959  52.454  0.00  0.00    +0.000 A 
ATOM     30  C   UNL     1      26.203  -0.292  52.110  0.00  0.00    +0.000 A 
ATOM     31  C   UNL     1      26.833  -1.471  52.523  0.00  0.00    +0.000 A 
ATOM     32  C   UNL     1      28.007  -1.409  53.265  0.00  0.00    +0.000 A 
ATOM     33  C   UNL     1      28.574  -0.170  53.556  0.00  0.00    +0.000 A 
ATOM     34  C   UNL     1      27.944   1.009  53.143  0.00  0.00    +0.000 A 
ENDBRANCH  15  29
TORSDOF 3
ENDMDL
MODEL 5
REMARK VINA RESULT:    -5.880      2.974      5.335
REMARK INTER + INTRA:          -7.175
REMARK INTER:                  -6.141
REMARK INTRA:                  -1.035
REMARK UNBOUND:                -0.437
REMARK  Name = 
REMARK  4 active torsions:
REMARK  status: ('A' for Active; 'I' for Inactive)
REMARK    1  A    between atoms: C_1  and  C_2
REMARK    2  A    between atoms: C_10  and  C_11
REMARK    3  A    between atoms: C_14  and  N_15
REMARK    4  A    between atoms: N_22  and  C_23
REMARK                            x       y       z     vdW  Elec       q    Type
REMARK                         _______ _______ _______ _____ _____    ______ ____
ROOT
ATOM      1  C   UNL     1      23.209   2.323  46.893  0.00  0.00    +0.000 C 
ATOM      2  C   UNL     1      21.920   2.480  47.703  0.00  0.00    +0.000 C 
ATOM      3  C   UNL     1      21.500   1.154  48.369  0.00  0.00    +0.000 C 
ATOM      4  C   UNL     1      20.572   1.385  49.538  0.00  0.00    +0.000 A 
ATOM      5  C   UNL     1      19.228   0.990  49.513  0.00  0.00    +0.000 A 
ATOM      6  C   UNL     1      18.440   1.323  50.600  0.00  0.00    +0.000 A 
ATOM      7  C   UNL     1      18.938   1.994  51.693  0.00  0.00    +0.000 A 
ATOM      8  C   UNL     1      20.250   2.383  51.768  0.00  0.00    +0.000 A 
ATOM      9  C   UNL     1      21.064   2.079  50.672  0.00  0.00    +0.000 A 
ATOM     10  C   UNL     1      22.455   2.611  50.675  0.00  0.00    +0.000 C 
ATOM     11  N   UNL     1      22.887   3.443  49.765  0.00  0.00    +0.000 NA
ATOM     12  N   UNL     1      22.047   3.595  48.664  0.00  0.00    +0.000 N 
ATOM     13  C   UNL     1      21.440   4.827  48.353  0.00  0.00    +0.000 C 
ATOM     14  O   UNL     1      20.747   4.972  47.348  0.00  0.00    +0.000 OA
ATOM     15  N   UNL     1      21.695   5.801  49.294  0.00  0.00    +0.000 N 
ATOM     16  O   UNL     1      17.989   2.239  52.637  0.00  0.00    +0.000 OA
ATOM     17  C   UNL     1      16.814   1.774  51.949  0.00  0.00    +0.000 C 
ATOM     18  O   UNL     1      17.109   1.069  50.724  0.00  0.00    +0.000 OA
ATOM     19  H   UNL     1      22.201   5.519  50.090  0.00  0.00    +0.000 HD
ENDROOT
BRANCH  10  20
ATOM     20  C   UNL     1      23.323   2.201  51.819  0.00  0.00    +0.000 A 
ATOM     21  C   UNL     1      23.996   3.178  52.567  0.00  0.00    +0.000 A 
ATOM     22  C   UNL     1      24.900   2.805  53.565  0.00  0.00    +0.000 A 
ATOM     23  C   UNL     1      25.171   1.459  53.804  0.00  0.00    +0.000 A 
ATOM     24  C   UNL     1      24.402   0.493  53.143  0.00  0.00    +0.000 A 
ATOM     25  C   UNL     1      23.491   0.855  52.143  0.00  0.00    +0.000 A 
BRANCH  23  26
ATOM     26  N   UNL     1      26.035   1.095  54.841  0.00  0.00    +0.000 N 
ATOM     27  H   UNL     1      26.921   0.718  54.634  0.00  0.00    +0.000 HD
ATOM     28  H   UNL     1      25.758   1.215  55.778  0.00  0.00    +0.000 HD
ENDBRANCH  23  26
ENDBRANCH  10  20
BRANCH  15  29
ATOM     29  C   UNL     1      21.310   7.155  49.240  0.00  0.00    +0.000 A 
ATOM     30  C   UNL     1      22.123   8.170  48.726  0.00  0.00    +0.000 A 
ATOM     31  C   UNL     1      21.744   9.513  48.830  0.00  0.00    +0.000 A 
ATOM     32  C   UNL     1      20.536   9.851  49.427  0.00  0.00    +0.000 A 
ATOM     33  C   UNL     1      19.687   8.843  49.882  0.00  0.00    +0.000 A 
ATOM     34  C   UNL     1      20.066   7.501  49.779  0.00  0.00    +0.000 A 
ENDBRANCH  15  29
TORSDOF 3
ENDMDL
MODEL 6
REMARK VINA RESULT:    -5.588      3.316      4.224
REMARK INTER + INTRA:          -6.841
REMARK INTER:                  -6.350
REMARK INTRA:                  -0.491
REMARK UNBOUND:                -0.437
REMARK  Name = 
REMARK  4 active torsions:
REMARK  status: ('A' for Active; 'I' for Inactive)
REMARK    1  A    between atoms: C_1  and  C_2
REMARK    2  A    between atoms: C_10  and  C_11
REMARK    3  A    between atoms: C_14  and  N_15
REMARK    4  A    between atoms: N_22  and  C_23
REMARK                            x       y       z     vdW  Elec       q    Type
REMARK                         _______ _______ _______ _____ _____    ______ ____
ROOT
ATOM      1  C   UNL     1      21.690   2.128  46.893  0.00  0.00    +0.000 C 
ATOM      2  C   UNL     1      22.285   2.001  48.297  0.00  0.00    +0.000 C 
ATOM      3  C   UNL     1      23.469   2.967  48.505  0.00  0.00    +0.000 C 
ATOM      4  C   UNL     1      23.729   3.225  49.970  0.00  0.00    +0.000 A 
ATOM      5  C   UNL     1      24.890   2.775  50.612  0.00  0.00    +0.000 A 
ATOM      6  C   UNL     1      24.995   2.988  51.975  0.00  0.00    +0.000 A 
ATOM      7  C   UNL     1      24.022   3.640  52.695  0.00  0.00    +0.000 A 
ATOM      8  C   UNL     1      22.878   4.114  52.105  0.00  0.00    +0.000 A 
ATOM      9  C   UNL     1      22.736   3.891  50.732  0.00  0.00    +0.000 A 
ATOM     10  C   UNL     1      21.445   4.276  50.099  0.00  0.00    +0.000 C 
ATOM     11  N   UNL     1      20.661   3.404  49.523  0.00  0.00    +0.000 NA
ATOM     12  N   UNL     1      21.231   2.148  49.321  0.00  0.00    +0.000 N 
ATOM     13  C   UNL     1      20.727   0.991  49.945  0.00  0.00    +0.000 C 
ATOM     14  O   UNL     1      21.195  -0.122  49.717  0.00  0.00    +0.000 OA
ATOM     15  N   UNL     1      19.700   1.262  50.822  0.00  0.00    +0.000 N 
ATOM     16  O   UNL     1      24.315   3.723  54.022  0.00  0.00    +0.000 OA
ATOM     17  C   UNL     1      25.510   2.924  54.072  0.00  0.00    +0.000 C 
ATOM     18  O   UNL     1      26.021   2.574  52.768  0.00  0.00    +0.000 OA
ATOM     19  H   UNL     1      19.482   2.212  50.964  0.00  0.00    +0.000 HD
ENDROOT
BRANCH  10  20
ATOM     20  C   UNL     1      21.046   5.712  50.216  0.00  0.00    +0.000 A 
ATOM     21  C   UNL     1      19.809   6.134  49.709  0.00  0.00    +0.000 A 
ATOM     22  C   UNL     1      19.473   7.490  49.707  0.00  0.00    +0.000 A 
ATOM     23  C   UNL     1      20.376   8.442  50.175  0.00  0.00    +0.000 A 
ATOM     24  C   UNL     1      21.552   8.002  50.795  0.00  0.00    +0.000 A 
ATOM     25  C   UNL     1      21.899   6.645  50.806  0.00  0.00    +0.000 A 
BRANCH  23  26
ATOM     26  N   UNL     1      20.008   9.790  50.220  0.00  0.00    +0.000 N 
ATOM     27  H   UNL     1      19.956  10.314  49.388  0.00  0.00    +0.000 HD
ATOM     28  H   UNL     1      19.803  10.216  51.083  0.00  0.00    +0.000 HD
ENDBRANCH  23  26
ENDBRANCH  10  20
BRANCH  15  29
ATOM     29  C   UNL     1      18.927   0.327  51.538  0.00  0.00    +0.000 A 
ATOM     30  C   UNL     1      17.613  -0.013  51.199  0.00  0.00    +0.000 A 
ATOM     31  C   UNL     1      16.849  -0.840  52.030  0.00  0.00    +0.000 A 
ATOM     32  C   UNL     1      17.402  -1.355  53.197  0.00  0.00    +0.000 A 
ATOM     33  C   UNL     1      18.731  -1.078  53.510  0.00  0.00    +0.000 A 
ATOM     34  C   UNL     1      19.494  -0.251  52.679  0.00  0.00    +0.000 A 
ENDBRANCH  15  29
TORSDOF 3
ENDMDL
MODEL 7
REMARK VINA RESULT:    -5.175      4.170      8.588
REMARK INTER + INTRA:          -6.368
REMARK INTER:                  -5.832
REMARK INTRA:                  -0.536
REMARK UNBOUND:                -0.437
REMARK  Name = 
REMARK  4 active torsions:
REMARK  status: ('A' for Active; 'I' for Inactive)
REMARK    1  A    between atoms: C_1  and  C_2
REMARK    2  A    between atoms: C_10  and  C_11
REMARK    3  A    between atoms: C_14  and  N_15
REMARK    4  A    between atoms: N_22  and  C_23
REMARK                            x       y       z     vdW  Elec       q    Type
REMARK                         _______ _______ _______ _____ _____    ______ ____
ROOT
ATOM      1  C   UNL     1      22.950   8.673  50.788  0.00  0.00    +0.000 C 
ATOM      2  C   UNL     1      23.694   7.412  51.235  0.00  0.00    +0.000 C 
ATOM      3  C   UNL     1      22.793   6.487  52.077  0.00  0.00    +0.000 C 
ATOM      4  C   UNL     1      23.308   5.067  52.090  0.00  0.00    +0.000 A 
ATOM      5  C   UNL     1      23.816   4.469  53.252  0.00  0.00    +0.000 A 
ATOM      6  C   UNL     1      24.342   3.195  53.140  0.00  0.00    +0.000 A 
ATOM      7  C   UNL     1      24.353   2.503  51.952  0.00  0.00    +0.000 A 
ATOM      8  C   UNL     1      23.850   3.041  50.795  0.00  0.00    +0.000 A 
ATOM      9  C   UNL     1      23.333   4.339  50.874  0.00  0.00    +0.000 A 
ATOM     10  C   UNL     1      22.906   4.991  49.606  0.00  0.00    +0.000 C 
ATOM     11  N   UNL     1      23.464   6.086  49.161  0.00  0.00    +0.000 NA
ATOM     12  N   UNL     1      24.298   6.730  50.072  0.00  0.00    +0.000 N 
ATOM     13  C   UNL     1      25.678   6.887  49.838  0.00  0.00    +0.000 C 
ATOM     14  O   UNL     1      26.399   7.508  50.616  0.00  0.00    +0.000 OA
ATOM     15  N   UNL     1      26.099   6.263  48.685  0.00  0.00    +0.000 N 
ATOM     16  O   UNL     1      24.935   1.278  52.061  0.00  0.00    +0.000 OA
ATOM     17  C   UNL     1      25.414   1.339  53.415  0.00  0.00    +0.000 C 
ATOM     18  O   UNL     1      24.924   2.484  54.145  0.00  0.00    +0.000 OA
ATOM     19  H   UNL     1      25.424   5.733  48.201  0.00  0.00    +0.000 HD
ENDROOT
BRANCH  10  20
ATOM     20  C   UNL     1      21.847   4.291  48.819  0.00  0.00    +0.000 A 
ATOM     21  C   UNL     1      20.624   4.932  48.573  0.00  0.00    +0.000 A 
ATOM     22  C   UNL     1      19.583   4.248  47.940  0.00  0.00    +0.000 A 
ATOM     23  C   UNL     1      19.736   2.912  47.576  0.00  0.00    +0.000 A 
ATOM     24  C   UNL     1      20.999   2.321  47.708  0.00  0.00    +0.000 A 
ATOM     25  C   UNL     1      22.050   2.997  48.339  0.00  0.00    +0.000 A 
BRANCH  23  26
ATOM     26  N   UNL     1      18.709   2.253  46.893  0.00  0.00    +0.000 N 
ATOM     27  H   UNL     1      18.093   1.661  47.383  0.00  0.00    +0.000 HD
ATOM     28  H   UNL     1      18.602   2.380  45.923  0.00  0.00    +0.000 HD
ENDBRANCH  23  26
ENDBRANCH  10  20
BRANCH  15  29
ATOM     29  C   UNL     1      27.390   6.298  48.123  0.00  0.00    +0.000 A 
ATOM     30  C   UNL     1      28.350   5.301  48.327  0.00  0.00    +0.000 A 
ATOM     31  C   UNL     1      29.659   5.460  47.860  0.00  0.00    +0.000 A 
ATOM     32  C   UNL     1      30.014   6.609  47.163  0.00  0.00    +0.000 A 
ATOM     33  C   UNL     1      29.049   7.578  46.895  0.00  0.00    +0.000 A 
ATOM     34  C   UNL     1      27.740   7.419  47.362  0.00  0.00    +0.000 A 
ENDBRANCH  15  29
TORSDOF 3
ENDMDL
MODEL 8
REMARK VINA RESULT:    -5.055      4.308      5.997
REMARK INTER + INTRA:          -6.230
REMARK INTER:                  -6.512
REMARK INTRA:                   0.281
REMARK UNBOUND:                -0.437
REMARK  Name = 
REMARK  4 active torsions:
REMARK  status: ('A' for Active; 'I' for Inactive)
REMARK    1  A    between atoms: C_1  and  C_2
REMARK    2  A    between atoms: C_10  and  C_11
REMARK    3  A    between atoms: C_14  and  N_15
REMARK    4  A    between atoms: N_22  and  C_23
REMARK                            x       y       z     vdW  Elec       q    Type
REMARK                         _______ _______ _______ _____ _____    ______ ____
ROOT
ATOM      1  C   UNL     1      17.655   2.791  48.503  0.00  0.00    +0.000 C 
ATOM      2  C   UNL     1      16.605   1.785  48.980  0.00  0.00    +0.000 C 
ATOM      3  C   UNL     1      17.004   0.337  48.632  0.00  0.00    +0.000 C 
ATOM      4  C   UNL     1      16.285  -0.666  49.503  0.00  0.00    +0.000 A 
ATOM      5  C   UNL     1      15.324  -1.547  48.988  0.00  0.00    +0.000 A 
ATOM      6  C   UNL     1      14.661  -2.368  49.883  0.00  0.00    +0.000 A 
ATOM      7  C   UNL     1      14.933  -2.360  51.231  0.00  0.00    +0.000 A 
ATOM      8  C   UNL     1      15.878  -1.529  51.775  0.00  0.00    +0.000 A 
ATOM      9  C   UNL     1      16.547  -0.671  50.896  0.00  0.00    +0.000 A 
ATOM     10  C   UNL     1      17.477   0.333  51.483  0.00  0.00    +0.000 C 
ATOM     11  N   UNL     1      17.292   1.619  51.350  0.00  0.00    +0.000 NA
ATOM     12  N   UNL     1      16.320   1.977  50.416  0.00  0.00    +0.000 N 
ATOM     13  C   UNL     1      15.146   2.659  50.787  0.00  0.00    +0.000 C 
ATOM     14  O   UNL     1      14.320   3.026  49.954  0.00  0.00    +0.000 OA
ATOM     15  N   UNL     1      15.037   2.835  52.149  0.00  0.00    +0.000 N 
ATOM     16  O   UNL     1      14.153  -3.229  51.931  0.00  0.00    +0.000 OA
ATOM     17  C   UNL     1      13.265  -3.673  50.890  0.00  0.00    +0.000 C 
ATOM     18  O   UNL     1      13.666  -3.243  49.572  0.00  0.00    +0.000 OA
ATOM     19  H   UNL     1      15.737   2.418  52.703  0.00  0.00    +0.000 HD
ENDROOT
BRANCH  10  20
ATOM     20  C   UNL     1      18.606  -0.202  52.302  0.00  0.00    +0.000 A 
ATOM     21  C   UNL     1      18.452  -1.413  52.993  0.00  0.00    +0.000 A 
ATOM     22  C   UNL     1      19.455  -1.867  53.853  0.00  0.00    +0.000 A 
ATOM     23  C   UNL     1      20.603  -1.106  54.062  0.00  0.00    +0.000 A 
ATOM     24  C   UNL     1      20.805   0.034  53.274  0.00  0.00    +0.000 A 
ATOM     25  C   UNL     1      19.808   0.497  52.406  0.00  0.00    +0.000 A 
BRANCH  23  26
ATOM     26  N   UNL     1      21.625  -1.595  54.882  0.00  0.00    +0.000 N 
ATOM     27  H   UNL     1      22.313  -0.982  55.230  0.00  0.00    +0.000 HD
ATOM     28  H   UNL     1      21.658  -2.552  55.110  0.00  0.00    +0.000 HD
ENDBRANCH  23  26
ENDBRANCH  10  20
BRANCH  15  29
ATOM     29  C   UNL     1      14.034   3.546  52.836  0.00  0.00    +0.000 A 
ATOM     30  C   UNL     1      13.710   3.324  54.179  0.00  0.00    +0.000 A 
ATOM     31  C   UNL     1      12.611   3.961  54.766  0.00  0.00    +0.000 A 
ATOM     32  C   UNL     1      11.840   4.845  54.020  0.00  0.00    +0.000 A 
ATOM     33  C   UNL     1      12.194   5.126  52.702  0.00  0.00    +0.000 A 
ATOM     34  C   UNL     1      13.293   4.489  52.116  0.00  0.00    +0.000 A 
ENDBRANCH  15  29
TORSDOF 3
ENDMDL
