MODEL 1
REMARK VINA RESULT:    -8.587      0.000      0.000
REMARK INTER + INTRA:         -14.724
REMARK INTER:                 -13.104
REMARK INTRA:                  -1.619
REMARK UNBOUND:                -1.619
REMARK  Name = 
REMARK  11 active torsions:
REMARK  status: ('A' for Active; 'I' for Inactive)
REMARK    1  A    between atoms: C_1  and  C_2
REMARK    2  A    between atoms: C_2  and  C_3
REMARK    3  A    between atoms: C_3  and  C_4
REMARK    4  A    between atoms: C_4  and  C_5
REMARK    5  A    between atoms: C_5  and  C_15
REMARK    6  A    between atoms: C_6  and  C_7
REMARK    7  A    between atoms: C_7  and  N_8
REMARK    8  A    between atoms: C_19  and  O_20
REMARK    9  A    between atoms: O_20  and  C_21
REMARK   10  A    between atoms: C_24  and  O_25
REMARK   11  A    between atoms: O_25  and  C_26
REMARK                            x       y       z     vdW  Elec       q    Type
REMARK                         _______ _______ _______ _____ _____    ______ ____
ROOT
ATOM      1  C   UNL     1      23.999   0.347  52.716  0.00  0.00    +0.000 C 
ATOM      2  C   UNL     1      25.330   0.250  52.939  0.00  0.00    +0.000 C 
ENDROOT
BRANCH   1   3
ATOM      3  C   UNL     1      23.540   1.413  51.766  0.00  0.00    +0.000 A 
ATOM      4  C   UNL     1      22.496   1.156  50.864  0.00  0.00    +0.000 A 
ATOM      5  C   UNL     1      22.206   2.030  49.815  0.00  0.00    +0.000 A 
ATOM      6  C   UNL     1      22.926   3.209  49.680  0.00  0.00    +0.000 A 
ATOM      7  C   UNL     1      23.817   3.591  50.680  0.00  0.00    +0.000 A 
ATOM      8  C   UNL     1      24.173   2.676  51.681  0.00  0.00    +0.000 A 
BRANCH   7   9
ATOM      9  O   UNL     1      24.385   4.851  50.732  0.00  0.00    +0.000 OA
BRANCH   9  10
ATOM     10  C   UNL     1      25.446   5.123  49.884  0.00  0.00    +0.000 A 
ATOM     11  C   UNL     1      26.396   4.172  49.491  0.00  0.00    +0.000 A 
ATOM     12  C   UNL     1      27.535   4.554  48.778  0.00  0.00    +0.000 A 
ATOM     13  C   UNL     1      27.690   5.877  48.369  0.00  0.00    +0.000 A 
ATOM     14  C   UNL     1      26.678   6.799  48.656  0.00  0.00    +0.000 A 
ATOM     15  C   UNL     1      25.560   6.430  49.413  0.00  0.00    +0.000 A 
BRANCH  13  16
ATOM     16  O   UNL     1      28.767   6.385  47.698  0.00  0.00    +0.000 OA
ATOM     17  C   UNL     1      30.045   5.861  48.044  0.00  0.00    +0.000 C 
ENDBRANCH  13  16
ENDBRANCH   9  10
ENDBRANCH   7   9
ENDBRANCH   1   3
BRANCH   1  18
ATOM     18  C   UNL     1      22.997  -0.699  53.186  0.00  0.00    +0.000 C 
BRANCH  18  19
ATOM     19  C   UNL     1      22.388  -0.514  54.585  0.00  0.00    +0.000 C 
BRANCH  19  21
ATOM     20  C   UNL     1      20.066  -0.558  53.525  0.00  0.00    +0.000 C 
ATOM     21  C   UNL     1      20.956   0.017  54.614  0.00  0.00    +0.000 C 
ENDBRANCH  19  21
ENDBRANCH  18  19
ENDBRANCH   1  18
BRANCH   2  22
ATOM     22  C   UNL     1      26.096  -0.831  53.644  0.00  0.00    +0.000 C 
BRANCH  22  23
ATOM     23  N   UNL     1      27.344  -0.238  54.095  0.00  0.00    +0.000 N 
ATOM     24  O   UNL     1      27.378   1.191  54.060  0.00  0.00    +0.000 OA
ATOM     25  C   UNL     1      28.697   1.548  53.882  0.00  0.00    +0.000 A 
ATOM     26  O   UNL     1      29.101   2.687  53.801  0.00  0.00    +0.000 OA
ATOM     27  N   UNL     1      29.432   0.428  53.754  0.00  0.00    +0.000 N 
ATOM     28  C   UNL     1      28.605  -0.639  53.671  0.00  0.00    +0.000 A 
ATOM     29  O   UNL     1      28.922  -1.738  53.251  0.00  0.00    +0.000 OA
ATOM     30  H   UNL     1      30.415   0.391  53.725  0.00  0.00    +0.000 HD
ENDBRANCH  22  23
ENDBRANCH   2  22
TORSDOF 9
ENDMDL
MODEL 2
REMARK VINA RESULT:    -8.100      1.198      1.841
REMARK INTER + INTRA:         -13.981
REMARK INTER:                 -12.480
REMARK INTRA:                  -1.501
REMARK UNBOUND:                -1.619
REMARK  Name = 
REMARK  11 active torsions:
REMARK  status: ('A' for Active; 'I' for Inactive)
REMARK    1  A    between atoms: C_1  and  C_2
REMARK    2  A    between atoms: C_2  and  C_3
REMARK    3  A    between atoms: C_3  and  C_4
REMARK    4  A    between atoms: C_4  and  C_5
REMARK    5  A    between atoms: C_5  and  C_15
REMARK    6  A    between atoms: C_6  and  C_7
REMARK    7  A    between atoms: C_7  and  N_8
REMARK    8  A    between atoms: C_19  and  O_20
REMARK    9  A    between atoms: O_20  and  C_21
REMARK   10  A    between atoms: C_24  and  O_25
REMARK   11  A    between atoms: O_25  and  C_26
REMARK                            x       y       z     vdW  Elec       q    Type
REMARK                         _______ _______ _______ _____ _____    ______ ____
ROOT
ATOM      1  C   UNL     1      24.418   1.241  52.634  0.00  0.00    +0.000 C 
ATOM      2  C   UNL     1      25.654   0.798  52.962  0.00  0.00    +0.000 C 
ENDROOT
BRANCH   1   3
ATOM      3  C   UNL     1      24.309   2.647  52.123  0.00  0.00    +0.000 A 
ATOM      4  C   UNL     1      23.831   3.668  52.959  0.00  0.00    +0.000 A 
ATOM      5  C   UNL     1      23.492   4.924  52.455  0.00  0.00    +0.000 A 
ATOM      6  C   UNL     1      23.676   5.201  51.106  0.00  0.00    +0.000 A 
ATOM      7  C   UNL     1      24.347   4.283  50.301  0.00  0.00    +0.000 A 
ATOM      8  C   UNL     1      24.603   2.992  50.783  0.00  0.00    +0.000 A 
BRANCH   7   9
ATOM      9  O   UNL     1      24.774   4.586  49.020  0.00  0.00    +0.000 OA
BRANCH   9  10
ATOM     10  C   UNL     1      25.968   5.272  48.879  0.00  0.00    +0.000 A 
ATOM     11  C   UNL     1      26.065   6.668  48.813  0.00  0.00    +0.000 A 
ATOM     12  C   UNL     1      27.277   7.285  48.495  0.00  0.00    +0.000 A 
ATOM     13  C   UNL     1      28.427   6.517  48.328  0.00  0.00    +0.000 A 
ATOM     14  C   UNL     1      28.353   5.133  48.518  0.00  0.00    +0.000 A 
ATOM     15  C   UNL     1      27.131   4.508  48.788  0.00  0.00    +0.000 A 
BRANCH  13  16
ATOM     16  O   UNL     1      29.662   6.991  47.984  0.00  0.00    +0.000 OA
ATOM     17  C   UNL     1      30.769   6.508  48.738  0.00  0.00    +0.000 C 
ENDBRANCH  13  16
ENDBRANCH   9  10
ENDBRANCH   7   9
ENDBRANCH   1   3
BRANCH   1  18
ATOM     18  C   UNL     1      23.205   0.326  52.534  0.00  0.00    +0.000 C 
BRANCH  18  19
ATOM     19  C   UNL     1      22.142   0.442  53.640  0.00  0.00    +0.000 C 
BRANCH  19  21
ATOM     20  C   UNL     1      22.990  -1.246  55.358  0.00  0.00    +0.000 C 
ATOM     21  C   UNL     1      21.864  -0.841  54.420  0.00  0.00    +0.000 C 
ENDBRANCH  19  21
ENDBRANCH  18  19
ENDBRANCH   1  18
BRANCH   2  22
ATOM     22  C   UNL     1      26.107  -0.597  53.281  0.00  0.00    +0.000 C 
BRANCH  22  23
ATOM     23  N   UNL     1      27.356  -0.478  54.014  0.00  0.00    +0.000 N 
ATOM     24  O   UNL     1      27.707   0.856  54.393  0.00  0.00    +0.000 OA
ATOM     25  C   UNL     1      29.082   0.894  54.466  0.00  0.00    +0.000 A 
ATOM     26  O   UNL     1      29.732   1.873  54.757  0.00  0.00    +0.000 OA
ATOM     27  N   UNL     1      29.566  -0.308  54.103  0.00  0.00    +0.000 N 
ATOM     28  C   UNL     1      28.554  -1.070  53.630  0.00  0.00    +0.000 A 
ATOM     29  O   UNL     1      28.691  -2.072  52.950  0.00  0.00    +0.000 OA
ATOM     30  H   UNL     1      30.507  -0.588  54.170  0.00  0.00    +0.000 HD
ENDBRANCH  22  23
ENDBRANCH   2  22
TORSDOF 9
ENDMDL
MODEL 3
REMARK VINA RESULT:    -8.065      2.597      6.531
REMARK INTER + INTRA:         -13.928
REMARK INTER:                 -11.903
REMARK INTRA:                  -2.025
REMARK UNBOUND:                -1.619
REMARK  Name = 
REMARK  11 active torsions:
REMARK  status: ('A' for Active; 'I' for Inactive)
REMARK    1  A    between atoms: C_1  and  C_2
REMARK    2  A    between atoms: C_2  and  C_3
REMARK    3  A    between atoms: C_3  and  C_4
REMARK    4  A    between atoms: C_4  and  C_5
REMARK    5  A    between atoms: C_5  and  C_15
REMARK    6  A    between atoms: C_6  and  C_7
REMARK    7  A    between atoms: C_7  and  N_8
REMARK    8  A    between atoms: C_19  and  O_20
REMARK    9  A    between atoms: O_20  and  C_21
REMARK   10  A    between atoms: C_24  and  O_25
REMARK   11  A    between atoms: O_25  and  C_26
REMARK                            x       y       z     vdW  Elec       q    Type
REMARK                         _______ _______ _______ _____ _____    ______ ____
ROOT
ATOM      1  C   UNL     1      22.252   3.198  51.737  0.00  0.00    +0.000 C 
ATOM      2  C   UNL     1      23.280   3.990  52.121  0.00  0.00    +0.000 C 
ENDROOT
BRANCH   1   3
ATOM      3  C   UNL     1      22.094   1.888  52.451  0.00  0.00    +0.000 A 
ATOM      4  C   UNL     1      20.918   1.608  53.163  0.00  0.00    +0.000 A 
ATOM      5  C   UNL     1      20.831   0.516  54.028  0.00  0.00    +0.000 A 
ATOM      6  C   UNL     1      21.908  -0.351  54.156  0.00  0.00    +0.000 A 
ATOM      7  C   UNL     1      23.003  -0.220  53.304  0.00  0.00    +0.000 A 
ATOM      8  C   UNL     1      23.129   0.925  52.504  0.00  0.00    +0.000 A 
BRANCH   7   9
ATOM      9  O   UNL     1      23.996  -1.179  53.211  0.00  0.00    +0.000 OA
BRANCH   9  10
ATOM     10  C   UNL     1      25.283  -0.820  53.572  0.00  0.00    +0.000 A 
ATOM     11  C   UNL     1      25.624  -0.281  54.818  0.00  0.00    +0.000 A 
ATOM     12  C   UNL     1      26.907   0.220  55.053  0.00  0.00    +0.000 A 
ATOM     13  C   UNL     1      27.890   0.103  54.073  0.00  0.00    +0.000 A 
ATOM     14  C   UNL     1      27.581  -0.550  52.875  0.00  0.00    +0.000 A 
ATOM     15  C   UNL     1      26.283  -1.008  52.619  0.00  0.00    +0.000 A 
BRANCH  13  16
ATOM     16  O   UNL     1      29.169   0.578  54.162  0.00  0.00    +0.000 OA
ATOM     17  C   UNL     1      30.194  -0.221  53.582  0.00  0.00    +0.000 C 
ENDBRANCH  13  16
ENDBRANCH   9  10
ENDBRANCH   7   9
ENDBRANCH   1   3
BRANCH   1  18
ATOM     18  C   UNL     1      21.141   3.668  50.809  0.00  0.00    +0.000 C 
BRANCH  18  19
ATOM     19  C   UNL     1      21.427   3.648  49.299  0.00  0.00    +0.000 C 
BRANCH  19  21
ATOM     20  C   UNL     1      21.531   1.150  48.779  0.00  0.00    +0.000 C 
ATOM     21  C   UNL     1      22.275   2.475  48.807  0.00  0.00    +0.000 C 
ENDBRANCH  19  21
ENDBRANCH  18  19
ENDBRANCH   1  18
BRANCH   2  22
ATOM     22  C   UNL     1      23.560   5.421  51.763  0.00  0.00    +0.000 C 
BRANCH  22  23
ATOM     23  N   UNL     1      24.393   5.402  50.573  0.00  0.00    +0.000 N 
ATOM     24  O   UNL     1      25.025   4.149  50.300  0.00  0.00    +0.000 OA
ATOM     25  C   UNL     1      26.187   4.435  49.616  0.00  0.00    +0.000 A 
ATOM     26  O   UNL     1      26.981   3.609  49.226  0.00  0.00    +0.000 OA
ATOM     27  N   UNL     1      26.308   5.772  49.517  0.00  0.00    +0.000 N 
ATOM     28  C   UNL     1      25.350   6.362  50.266  0.00  0.00    +0.000 A 
ATOM     29  O   UNL     1      25.367   7.524  50.636  0.00  0.00    +0.000 OA
ATOM     30  H   UNL     1      26.988   6.244  48.984  0.00  0.00    +0.000 HD
ENDBRANCH  22  23
ENDBRANCH   2  22
TORSDOF 9
ENDMDL
MODEL 4
REMARK VINA RESULT:    -7.705      1.896      2.271
REMARK INTER + INTRA:         -13.378
REMARK INTER:                 -11.797
REMARK INTRA:                  -1.581
REMARK UNBOUND:                -1.619
REMARK  Name = 
REMARK  11 active torsions:
REMARK  status: ('A' for Active; 'I' for Inactive)
REMARK    1  A    between atoms: C_1  and  C_2
REMARK    2  A    between atoms: C_2  and  C_3
REMARK    3  A    between atoms: C_3  and  C_4
REMARK    4  A    between atoms: C_4  and  C_5
REMARK    5  A    between atoms: C_5  and  C_15
REMARK    6  A    between atoms: C_6  and  C_7
REMARK    7  A    between atoms: C_7  and  N_8
REMARK    8  A    between atoms: C_19  and  O_20
REMARK    9  A    between atoms: O_20  and  C_21
REMARK   10  A    between atoms: C_24  and  O_25
REMARK   11  A    between atoms: O_25  and  C_26
REMARK                            x       y       z     vdW  Elec       q    Type
REMARK                         _______ _______ _______ _____ _____    ______ ____
ROOT
ATOM      1  C   UNL     1      23.510   0.416  52.517  0.00  0.00    +0.000 C 
ATOM      2  C   UNL     1      24.861   0.353  52.467  0.00  0.00    +0.000 C 
ENDROOT
BRANCH   1   3
ATOM      3  C   UNL     1      22.850   1.535  51.766  0.00  0.00    +0.000 A 
ATOM      4  C   UNL     1      22.047   1.259  50.649  0.00  0.00    +0.000 A 
ATOM      5  C   UNL     1      21.617   2.274  49.791  0.00  0.00    +0.000 A 
ATOM      6  C   UNL     1      21.941   3.595  50.067  0.00  0.00    +0.000 A 
ATOM      7  C   UNL     1      22.551   3.916  51.279  0.00  0.00    +0.000 A 
ATOM      8  C   UNL     1      23.061   2.895  52.092  0.00  0.00    +0.000 A 
BRANCH   7   9
ATOM      9  O   UNL     1      22.686   5.219  51.724  0.00  0.00    +0.000 OA
BRANCH   9  10
ATOM     10  C   UNL     1      23.558   6.052  51.042  0.00  0.00    +0.000 A 
ATOM     11  C   UNL     1      24.811   5.650  50.564  0.00  0.00    +0.000 A 
ATOM     12  C   UNL     1      25.709   6.584  50.042  0.00  0.00    +0.000 A 
ATOM     13  C   UNL     1      25.328   7.917  49.908  0.00  0.00    +0.000 A 
ATOM     14  C   UNL     1      24.031   8.292  50.272  0.00  0.00    +0.000 A 
ATOM     15  C   UNL     1      23.146   7.369  50.840  0.00  0.00    +0.000 A 
BRANCH  13  16
ATOM     16  O   UNL     1      26.119   8.932  49.447  0.00  0.00    +0.000 OA
ATOM     17  C   UNL     1      27.347   9.152  50.133  0.00  0.00    +0.000 C 
ENDBRANCH  13  16
ENDBRANCH   9  10
ENDBRANCH   7   9
ENDBRANCH   1   3
BRANCH   1  18
ATOM     18  C   UNL     1      22.644  -0.700  53.083  0.00  0.00    +0.000 C 
BRANCH  18  19
ATOM     19  C   UNL     1      21.977  -0.453  54.446  0.00  0.00    +0.000 C 
BRANCH  19  21
ATOM     20  C   UNL     1      19.753  -0.252  53.207  0.00  0.00    +0.000 C 
ATOM     21  C   UNL     1      20.594   0.193  54.393  0.00  0.00    +0.000 C 
ENDBRANCH  19  21
ENDBRANCH  18  19
ENDBRANCH   1  18
BRANCH   2  22
ATOM     22  C   UNL     1      25.774  -0.750  52.916  0.00  0.00    +0.000 C 
BRANCH  22  23
ATOM     23  N   UNL     1      26.969  -0.117  53.449  0.00  0.00    +0.000 N 
ATOM     24  O   UNL     1      28.200  -0.598  52.903  0.00  0.00    +0.000 OA
ATOM     25  C   UNL     1      29.158  -0.420  53.877  0.00  0.00    +0.000 A 
ATOM     26  O   UNL     1      30.325  -0.722  53.763  0.00  0.00    +0.000 OA
ATOM     27  N   UNL     1      28.565   0.081  54.977  0.00  0.00    +0.000 N 
ATOM     28  C   UNL     1      27.225   0.069  54.802  0.00  0.00    +0.000 A 
ATOM     29  O   UNL     1      26.402   0.162  55.697  0.00  0.00    +0.000 OA
ATOM     30  H   UNL     1      29.033   0.403  55.780  0.00  0.00    +0.000 HD
ENDBRANCH  22  23
ENDBRANCH   2  22
TORSDOF 9
ENDMDL
MODEL 5
REMARK VINA RESULT:    -7.678      2.547      6.319
REMARK INTER + INTRA:         -13.337
REMARK INTER:                 -12.246
REMARK INTRA:                  -1.090
REMARK UNBOUND:                -1.619
REMARK  Name = 
REMARK  11 active torsions:
REMARK  status: ('A' for Active; 'I' for Inactive)
REMARK    1  A    between atoms: C_1  and  C_2
REMARK    2  A    between atoms: C_2  and  C_3
REMARK    3  A    between atoms: C_3  and  C_4
REMARK    4  A    between atoms: C_4  and  C_5
REMARK    5  A    between atoms: C_5  and  C_15
REMARK    6  A    between atoms: C_6  and  C_7
REMARK    7  A    between atoms: C_7  and  N_8
REMARK    8  A    between atoms: C_19  and  O_20
REMARK    9  A    between atoms: O_20  and  C_21
REMARK   10  A    between atoms: C_24  and  O_25
REMARK   11  A    between atoms: O_25  and  C_26
REMARK                            x       y       z     vdW  Elec       q    Type
REMARK                         _______ _______ _______ _____ _____    ______ ____
ROOT
ATOM      1  C   UNL     1      22.235   1.149  50.782  0.00  0.00    +0.000 C 
ATOM      2  C   UNL     1      23.275   2.010  50.698  0.00  0.00    +0.000 C 
ENDROOT
BRANCH   1   3
ATOM      3  C   UNL     1      22.063   0.407  52.074  0.00  0.00    +0.000 A 
ATOM      4  C   UNL     1      20.778   0.157  52.580  0.00  0.00    +0.000 A 
ATOM      5  C   UNL     1      20.585  -0.312  53.880  0.00  0.00    +0.000 A 
ATOM      6  C   UNL     1      21.682  -0.589  54.685  0.00  0.00    +0.000 A 
ATOM      7  C   UNL     1      22.963  -0.556  54.138  0.00  0.00    +0.000 A 
ATOM      8  C   UNL     1      23.162   0.000  52.867  0.00  0.00    +0.000 A 
BRANCH   7   9
ATOM      9  O   UNL     1      24.072  -1.046  54.804  0.00  0.00    +0.000 OA
BRANCH   9  10
ATOM     10  C   UNL     1      25.324  -0.697  54.328  0.00  0.00    +0.000 A 
ATOM     11  C   UNL     1      25.887  -1.214  53.155  0.00  0.00    +0.000 A 
ATOM     12  C   UNL     1      27.220  -0.953  52.827  0.00  0.00    +0.000 A 
ATOM     13  C   UNL     1      27.978  -0.097  53.622  0.00  0.00    +0.000 A 
ATOM     14  C   UNL     1      27.375   0.517  54.725  0.00  0.00    +0.000 A 
ATOM     15  C   UNL     1      26.055   0.219  55.083  0.00  0.00    +0.000 A 
BRANCH  13  16
ATOM     16  O   UNL     1      29.295   0.213  53.432  0.00  0.00    +0.000 OA
ATOM     17  C   UNL     1      30.230  -0.854  53.552  0.00  0.00    +0.000 C 
ENDBRANCH  13  16
ENDBRANCH   9  10
ENDBRANCH   7   9
ENDBRANCH   1   3
BRANCH   1  18
ATOM     18  C   UNL     1      21.126   1.079  49.741  0.00  0.00    +0.000 C 
BRANCH  18  19
ATOM     19  C   UNL     1      19.836   1.863  50.033  0.00  0.00    +0.000 C 
BRANCH  19  21
ATOM     20  C   UNL     1      19.960   3.745  51.754  0.00  0.00    +0.000 C 
ATOM     21  C   UNL     1      20.019   3.359  50.285  0.00  0.00    +0.000 C 
ENDBRANCH  19  21
ENDBRANCH  18  19
ENDBRANCH   1  18
BRANCH   2  22
ATOM     22  C   UNL     1      23.572   3.039  49.646  0.00  0.00    +0.000 C 
BRANCH  22  23
ATOM     23  N   UNL     1      24.441   4.030  50.258  0.00  0.00    +0.000 N 
ATOM     24  O   UNL     1      23.873   5.337  50.376  0.00  0.00    +0.000 OA
ATOM     25  C   UNL     1      24.926   6.226  50.346  0.00  0.00    +0.000 A 
ATOM     26  O   UNL     1      24.817   7.430  50.417  0.00  0.00    +0.000 OA
ATOM     27  N   UNL     1      26.066   5.536  50.163  0.00  0.00    +0.000 N 
ATOM     28  C   UNL     1      25.766   4.244  49.901  0.00  0.00    +0.000 A 
ATOM     29  O   UNL     1      26.528   3.437  49.395  0.00  0.00    +0.000 OA
ATOM     30  H   UNL     1      26.975   5.912  50.211  0.00  0.00    +0.000 HD
ENDBRANCH  22  23
ENDBRANCH   2  22
TORSDOF 9
ENDMDL
MODEL 6
REMARK VINA RESULT:    -7.498      3.049      5.394
REMARK INTER + INTRA:         -13.062
REMARK INTER:                 -11.331
REMARK INTRA:                  -1.732
REMARK UNBOUND:                -1.619
REMARK  Name = 
REMARK  11 active torsions:
REMARK  status: ('A' for Active; 'I' for Inactive)
REMARK    1  A    between atoms: C_1  and  C_2
REMARK    2  A    between atoms: C_2  and  C_3
REMARK    3  A    between atoms: C_3  and  C_4
REMARK    4  A    between atoms: C_4  and  C_5
REMARK    5  A    between atoms: C_5  and  C_15
REMARK    6  A    between atoms: C_6  and  C_7
REMARK    7  A    between atoms: C_7  and  N_8
REMARK    8  A    between atoms: C_19  and  O_20
REMARK    9  A    between atoms: O_20  and  C_21
REMARK   10  A    between atoms: C_24  and  O_25
REMARK   11  A    between atoms: O_25  and  C_26
REMARK                            x       y       z     vdW  Elec       q    Type
REMARK                         _______ _______ _______ _____ _____    ______ ____
ROOT
ATOM      1  C   UNL     1      24.498   0.483  52.685  0.00  0.00    +0.000 C 
ATOM      2  C   UNL     1      25.444  -0.454  52.442  0.00  0.00    +0.000 C 
ENDROOT
BRANCH   1   3
ATOM      3  C   UNL     1      23.219   0.015  53.313  0.00  0.00    +0.000 A 
ATOM      4  C   UNL     1      23.249  -0.830  54.434  0.00  0.00    +0.000 A 
ATOM      5  C   UNL     1      22.099  -1.473  54.894  0.00  0.00    +0.000 A 
ATOM      6  C   UNL     1      20.880  -1.240  54.270  0.00  0.00    +0.000 A 
ATOM      7  C   UNL     1      20.784  -0.246  53.298  0.00  0.00    +0.000 A 
ATOM      8  C   UNL     1      21.949   0.331  52.775  0.00  0.00    +0.000 A 
BRANCH   7   9
ATOM      9  O   UNL     1      19.570   0.203  52.808  0.00  0.00    +0.000 OA
BRANCH   9  10
ATOM     10  C   UNL     1      19.586   1.153  51.801  0.00  0.00    +0.000 A 
ATOM     11  C   UNL     1      19.664   0.845  50.437  0.00  0.00    +0.000 A 
ATOM     12  C   UNL     1      19.853   1.852  49.487  0.00  0.00    +0.000 A 
ATOM     13  C   UNL     1      19.873   3.188  49.884  0.00  0.00    +0.000 A 
ATOM     14  C   UNL     1      19.669   3.499  51.232  0.00  0.00    +0.000 A 
ATOM     15  C   UNL     1      19.530   2.490  52.191  0.00  0.00    +0.000 A 
BRANCH  13  16
ATOM     16  O   UNL     1      20.082   4.262  49.064  0.00  0.00    +0.000 OA
ATOM     17  C   UNL     1      21.188   4.183  48.172  0.00  0.00    +0.000 C 
ENDBRANCH  13  16
ENDBRANCH   9  10
ENDBRANCH   7   9
ENDBRANCH   1   3
BRANCH   1  18
ATOM     18  C   UNL     1      24.758   1.979  52.574  0.00  0.00    +0.000 C 
BRANCH  18  19
ATOM     19  C   UNL     1      24.496   2.640  51.211  0.00  0.00    +0.000 C 
BRANCH  19  21
ATOM     20  C   UNL     1      23.060   4.268  52.556  0.00  0.00    +0.000 C 
ATOM     21  C   UNL     1      23.378   3.681  51.190  0.00  0.00    +0.000 C 
ENDBRANCH  19  21
ENDBRANCH  18  19
ENDBRANCH   1  18
BRANCH   2  22
ATOM     22  C   UNL     1      26.879  -0.269  52.040  0.00  0.00    +0.000 C 
BRANCH  22  23
ATOM     23  N   UNL     1      27.645  -0.123  53.266  0.00  0.00    +0.000 N 
ATOM     24  O   UNL     1      27.983   1.224  53.607  0.00  0.00    +0.000 OA
ATOM     25  C   UNL     1      29.154   1.163  54.332  0.00  0.00    +0.000 A 
ATOM     26  O   UNL     1      29.738   2.123  54.784  0.00  0.00    +0.000 OA
ATOM     27  N   UNL     1      29.555  -0.119  54.393  0.00  0.00    +0.000 N 
ATOM     28  C   UNL     1      28.774  -0.868  53.583  0.00  0.00    +0.000 A 
ATOM     29  O   UNL     1      29.053  -1.983  53.177  0.00  0.00    +0.000 OA
ATOM     30  H   UNL     1      30.300  -0.458  54.940  0.00  0.00    +0.000 HD
ENDBRANCH  22  23
ENDBRANCH   2  22
TORSDOF 9
ENDMDL
MODEL 7
REMARK VINA RESULT:    -7.437      2.915      6.114
REMARK INTER + INTRA:         -12.970
REMARK INTER:                 -11.315
REMARK INTRA:                  -1.655
REMARK UNBOUND:                -1.619
REMARK  Name = 
REMARK  11 active torsions:
REMARK  status: ('A' for Active; 'I' for Inactive)
REMARK    1  A    between atoms: C_1  and  C_2
REMARK    2  A    between atoms: C_2  and  C_3
REMARK    3  A    between atoms: C_3  and  C_4
REMARK    4  A    between atoms: C_4  and  C_5
REMARK    5  A    between atoms: C_5  and  C_15
REMARK    6  A    between atoms: C_6  and  C_7
REMARK    7  A    between atoms: C_7  and  N_8
REMARK    8  A    between atoms: C_19  and  O_20
REMARK    9  A    between atoms: O_20  and  C_21
REMARK   10  A    between atoms: C_24  and  O_25
REMARK   11  A    between atoms: O_25  and  C_26
REMARK                            x       y       z     vdW  Elec       q    Type
REMARK                         _______ _______ _______ _____ _____    ______ ____
ROOT
ATOM      1  C   UNL     1      24.533   0.989  52.648  0.00  0.00    +0.000 C 
ATOM      2  C   UNL     1      25.534   1.709  53.205  0.00  0.00    +0.000 C 
ENDROOT
BRANCH   1   3
ATOM      3  C   UNL     1      23.871   1.565  51.431  0.00  0.00    +0.000 A 
ATOM      4  C   UNL     1      24.468   2.629  50.739  0.00  0.00    +0.000 A 
ATOM      5  C   UNL     1      23.775   3.341  49.758  0.00  0.00    +0.000 A 
ATOM      6  C   UNL     1      22.484   2.966  49.415  0.00  0.00    +0.000 A 
ATOM      7  C   UNL     1      21.949   1.787  49.930  0.00  0.00    +0.000 A 
ATOM      8  C   UNL     1      22.605   1.126  50.978  0.00  0.00    +0.000 A 
BRANCH   7   9
ATOM      9  O   UNL     1      20.775   1.230  49.455  0.00  0.00    +0.000 OA
BRANCH   9  10
ATOM     10  C   UNL     1      19.626   1.388  50.212  0.00  0.00    +0.000 A 
ATOM     11  C   UNL     1      19.015   0.354  50.931  0.00  0.00    +0.000 A 
ATOM     12  C   UNL     1      17.766   0.541  51.528  0.00  0.00    +0.000 A 
ATOM     13  C   UNL     1      17.156   1.794  51.490  0.00  0.00    +0.000 A 
ATOM     14  C   UNL     1      17.828   2.858  50.879  0.00  0.00    +0.000 A 
ATOM     15  C   UNL     1      19.056   2.660  50.237  0.00  0.00    +0.000 A 
BRANCH  13  16
ATOM     16  O   UNL     1      15.927   2.100  52.003  0.00  0.00    +0.000 OA
ATOM     17  C   UNL     1      15.645   3.479  52.217  0.00  0.00    +0.000 C 
ENDBRANCH  13  16
ENDBRANCH   9  10
ENDBRANCH   7   9
ENDBRANCH   1   3
BRANCH   1  18
ATOM     18  C   UNL     1      24.220  -0.447  53.045  0.00  0.00    +0.000 C 
BRANCH  18  19
ATOM     19  C   UNL     1      23.317  -0.659  54.271  0.00  0.00    +0.000 C 
BRANCH  19  21
ATOM     20  C   UNL     1      20.815  -1.096  54.005  0.00  0.00    +0.000 C 
ATOM     21  C   UNL     1      21.915  -0.060  54.165  0.00  0.00    +0.000 C 
ENDBRANCH  19  21
ENDBRANCH  18  19
ENDBRANCH   1  18
BRANCH   2  22
ATOM     22  C   UNL     1      26.515   1.305  54.266  0.00  0.00    +0.000 C 
BRANCH  22  23
ATOM     23  N   UNL     1      27.682   0.774  53.582  0.00  0.00    +0.000 N 
ATOM     24  O   UNL     1      27.717  -0.651  53.471  0.00  0.00    +0.000 OA
ATOM     25  C   UNL     1      29.048  -1.008  53.419  0.00  0.00    +0.000 A 
ATOM     26  O   UNL     1      29.456  -2.144  53.329  0.00  0.00    +0.000 OA
ATOM     27  N   UNL     1      29.796   0.104  53.547  0.00  0.00    +0.000 N 
ATOM     28  C   UNL     1      28.993   1.147  53.854  0.00  0.00    +0.000 A 
ATOM     29  O   UNL     1      29.370   2.204  54.329  0.00  0.00    +0.000 OA
ATOM     30  H   UNL     1      30.773   0.149  53.436  0.00  0.00    +0.000 HD
ENDBRANCH  22  23
ENDBRANCH   2  22
TORSDOF 9
ENDMDL
MODEL 8
REMARK VINA RESULT:    -7.404      3.992      7.763
REMARK INTER + INTRA:         -12.919
REMARK INTER:                 -10.803
REMARK INTRA:                  -2.116
REMARK UNBOUND:                -1.619
REMARK  Name = 
REMARK  11 active torsions:
REMARK  status: ('A' for Active; 'I' for Inactive)
REMARK    1  A    between atoms: C_1  and  C_2
REMARK    2  A    between atoms: C_2  and  C_3
REMARK    3  A    between atoms: C_3  and  C_4
REMARK    4  A    between atoms: C_4  and  C_5
REMARK    5  A    between atoms: C_5  and  C_15
REMARK    6  A    between atoms: C_6  and  C_7
REMARK    7  A    between atoms: C_7  and  N_8
REMARK    8  A    between atoms: C_19  and  O_20
REMARK    9  A    between atoms: O_20  and  C_21
REMARK   10  A    between atoms: C_24  and  O_25
REMARK   11  A    between atoms: O_25  and  C_26
REMARK                            x       y       z     vdW  Elec       q    Type
REMARK                         _______ _______ _______ _____ _____    ______ ____
ROOT
ATOM      1  C   UNL     1      22.110   2.448  51.695  0.00  0.00    +0.000 C 
ATOM      2  C   UNL     1      21.394   3.533  52.071  0.00  0.00    +0.000 C 
ENDROOT
BRANCH   1   3
ATOM      3  C   UNL     1      22.068   1.254  52.602  0.00  0.00    +0.000 A 
ATOM      4  C   UNL     1      20.910   0.968  53.341  0.00  0.00    +0.000 A 
ATOM      5  C   UNL     1      20.914   0.018  54.364  0.00  0.00    +0.000 A 
ATOM      6  C   UNL     1      22.069  -0.705  54.632  0.00  0.00    +0.000 A 
ATOM      7  C   UNL     1      23.164  -0.595  53.776  0.00  0.00    +0.000 A 
ATOM      8  C   UNL     1      23.192   0.420  52.810  0.00  0.00    +0.000 A 
BRANCH   7   9
ATOM      9  O   UNL     1      24.249  -1.451  53.839  0.00  0.00    +0.000 OA
BRANCH   9  10
ATOM     10  C   UNL     1      25.517  -0.899  53.779  0.00  0.00    +0.000 A 
ATOM     11  C   UNL     1      26.445  -1.178  52.768  0.00  0.00    +0.000 A 
ATOM     12  C   UNL     1      27.763  -0.726  52.863  0.00  0.00    +0.000 A 
ATOM     13  C   UNL     1      28.144   0.089  53.927  0.00  0.00    +0.000 A 
ATOM     14  C   UNL     1      27.183   0.469  54.870  0.00  0.00    +0.000 A 
ATOM     15  C   UNL     1      25.875  -0.023  54.803  0.00  0.00    +0.000 A 
BRANCH  13  16
ATOM     16  O   UNL     1      29.403   0.569  54.154  0.00  0.00    +0.000 OA
ATOM     17  C   UNL     1      29.520   1.959  54.439  0.00  0.00    +0.000 C 
ENDBRANCH  13  16
ENDBRANCH   9  10
ENDBRANCH   7   9
ENDBRANCH   1   3
BRANCH   1  18
ATOM     18  C   UNL     1      22.742   2.304  50.318  0.00  0.00    +0.000 C 
BRANCH  18  19
ATOM     19  C   UNL     1      23.998   3.141  50.027  0.00  0.00    +0.000 C 
BRANCH  19  21
ATOM     20  C   UNL     1      26.036   2.216  51.258  0.00  0.00    +0.000 C 
ATOM     21  C   UNL     1      24.968   3.297  51.197  0.00  0.00    +0.000 C 
ENDBRANCH  19  21
ENDBRANCH  18  19
ENDBRANCH   1  18
BRANCH   2  22
ATOM     22  C   UNL     1      21.063   4.769  51.286  0.00  0.00    +0.000 C 
BRANCH  22  23
ATOM     23  N   UNL     1      19.762   4.545  50.677  0.00  0.00    +0.000 N 
ATOM     24  O   UNL     1      18.840   3.805  51.482  0.00  0.00    +0.000 OA
ATOM     25  C   UNL     1      17.993   3.155  50.611  0.00  0.00    +0.000 A 
ATOM     26  O   UNL     1      17.084   2.427  50.944  0.00  0.00    +0.000 OA
ATOM     27  N   UNL     1      18.388   3.416  49.352  0.00  0.00    +0.000 N 
ATOM     28  C   UNL     1      19.568   4.075  49.384  0.00  0.00    +0.000 A 
ATOM     29  O   UNL     1      20.333   4.186  48.441  0.00  0.00    +0.000 OA
ATOM     30  H   UNL     1      17.896   3.166  48.537  0.00  0.00    +0.000 HD
ENDBRANCH  22  23
ENDBRANCH   2  22
TORSDOF 9
ENDMDL
MODEL 9
REMARK VINA RESULT:    -7.282      4.789      7.750
REMARK INTER + INTRA:         -12.733
REMARK INTER:                 -10.892
REMARK INTRA:                  -1.841
REMARK UNBOUND:                -1.619
REMARK  Name = 
REMARK  11 active torsions:
REMARK  status: ('A' for Active; 'I' for Inactive)
REMARK    1  A    between atoms: C_1  and  C_2
REMARK    2  A    between atoms: C_2  and  C_3
REMARK    3  A    between atoms: C_3  and  C_4
REMARK    4  A    between atoms: C_4  and  C_5
REMARK    5  A    between atoms: C_5  and  C_15
REMARK    6  A    between atoms: C_6  and  C_7
REMARK    7  A    between atoms: C_7  and  N_8
REMARK    8  A    between atoms: C_19  and  O_20
REMARK    9  A    between atoms: O_20  and  C_21
REMARK   10  A    between atoms: C_24  and  O_25
REMARK   11  A    between atoms: O_25  and  C_26
REMARK                            x       y       z     vdW  Elec       q    Type
REMARK                         _______ _______ _______ _____ _____    ______ ____
ROOT
ATOM      1  C   UNL     1      20.485   0.404  52.361  0.00  0.00    +0.000 C 
ATOM      2  C   UNL     1      19.320  -0.009  51.810  0.00  0.00    +0.000 C 
ENDROOT
BRANCH   1   3
ATOM      3  C   UNL     1      21.415   1.188  51.484  0.00  0.00    +0.000 A 
ATOM      4  C   UNL     1      21.078   1.444  50.145  0.00  0.00    +0.000 A 
ATOM      5  C   UNL     1      22.012   1.955  49.243  0.00  0.00    +0.000 A 
ATOM      6  C   UNL     1      23.292   2.270  49.678  0.00  0.00    +0.000 A 
ATOM      7  C   UNL     1      23.587   2.229  51.039  0.00  0.00    +0.000 A 
ATOM      8  C   UNL     1      22.683   1.632  51.928  0.00  0.00    +0.000 A 
BRANCH   7   9
ATOM      9  O   UNL     1      24.754   2.753  51.566  0.00  0.00    +0.000 OA
BRANCH   9  10
ATOM     10  C   UNL     1      25.548   1.923  52.340  0.00  0.00    +0.000 A 
ATOM     11  C   UNL     1      25.736   2.084  53.718  0.00  0.00    +0.000 A 
ATOM     12  C   UNL     1      26.685   1.320  54.403  0.00  0.00    +0.000 A 
ATOM     13  C   UNL     1      27.391   0.323  53.734  0.00  0.00    +0.000 A 
ATOM     14  C   UNL     1      27.110   0.081  52.385  0.00  0.00    +0.000 A 
ATOM     15  C   UNL     1      26.197   0.877  51.685  0.00  0.00    +0.000 A 
BRANCH  13  16
ATOM     16  O   UNL     1      28.365  -0.467  54.276  0.00  0.00    +0.000 OA
ATOM     17  C   UNL     1      29.610  -0.516  53.588  0.00  0.00    +0.000 C 
ENDBRANCH  13  16
ENDBRANCH   9  10
ENDBRANCH   7   9
ENDBRANCH   1   3
BRANCH   1  18
ATOM     18  C   UNL     1      20.778   0.319  53.853  0.00  0.00    +0.000 C 
BRANCH  18  19
ATOM     19  C   UNL     1      21.229  -1.042  54.406  0.00  0.00    +0.000 C 
BRANCH  19  21
ATOM     20  C   UNL     1      23.736  -1.030  53.922  0.00  0.00    +0.000 C 
ATOM     21  C   UNL     1      22.645  -1.082  54.978  0.00  0.00    +0.000 C 
ENDBRANCH  19  21
ENDBRANCH  18  19
ENDBRANCH   1  18
BRANCH   2  22
ATOM     22  C   UNL     1      18.114  -0.603  52.479  0.00  0.00    +0.000 C 
BRANCH  22  23
ATOM     23  N   UNL     1      16.948  -0.076  51.790  0.00  0.00    +0.000 N 
ATOM     24  O   UNL     1      16.884   1.351  51.720  0.00  0.00    +0.000 OA
ATOM     25  C   UNL     1      15.548   1.682  51.656  0.00  0.00    +0.000 A 
ATOM     26  O   UNL     1      15.117   2.812  51.592  0.00  0.00    +0.000 OA
ATOM     27  N   UNL     1      14.821   0.553  51.740  0.00  0.00    +0.000 N 
ATOM     28  C   UNL     1      15.641  -0.482  52.030  0.00  0.00    +0.000 A 
ATOM     29  O   UNL     1      15.278  -1.561  52.468  0.00  0.00    +0.000 OA
ATOM     30  H   UNL     1      13.847   0.491  51.611  0.00  0.00    +0.000 HD
ENDBRANCH  22  23
ENDBRANCH   2  22
TORSDOF 9
ENDMDL
