MODEL 1
REMARK VINA RESULT:    -7.303      0.000      0.000
REMARK INTER + INTRA:         -16.018
REMARK INTER:                 -13.280
REMARK INTRA:                  -2.738
REMARK UNBOUND:                -2.738
REMARK  Name = 
REMARK  17 active torsions:
REMARK  status: ('A' for Active; 'I' for Inactive)
REMARK    1  A    between atoms: C_1  and  O_2
REMARK    2  A    between atoms: O_2  and  C_3
REMARK    3  A    between atoms: C_3  and  C_5
REMARK    4  A    between atoms: C_5  and  C_6
REMARK    5  A    between atoms: C_6  and  C_7
REMARK    6  A    between atoms: C_8  and  C_9
REMARK    7  A    between atoms: C_9  and  C_10
REMARK    8  A    between atoms: C_10  and  C_11
REMARK    9  A    between atoms: C_15  and  O_16
REMARK   10  A    between atoms: C_17  and  C_18
REMARK   11  A    between atoms: C_19  and  C_20
REMARK   12  A    between atoms: C_20  and  C_21
REMARK   13  A    between atoms: C_21  and  C_22
REMARK   14  A    between atoms: C_21  and  O_23
REMARK   15  A    between atoms: C_21  and  C_24
REMARK   16  A    between atoms: C_24  and  C_25
REMARK   17  A    between atoms: C_25  and  C_26
REMARK                            x       y       z     vdW  Elec       q    Type
REMARK                         _______ _______ _______ _____ _____    ______ ____
ROOT
ATOM      1  C   UNL     1      25.869   0.854  52.018  0.00  0.00    +0.000 C 
ATOM      2  C   UNL     1      26.782  -0.162  52.672  0.00  0.00    +0.000 C 
ATOM      3  O   UNL     1      27.188  -1.175  52.113  0.00  0.00    +0.000 OA
ATOM      4  C   UNL     1      27.193   0.229  54.070  0.00  0.00    +0.000 C 
ATOM      5  C   UNL     1      26.417   1.524  54.298  0.00  0.00    +0.000 C 
ATOM      6  C   UNL     1      25.251   1.495  53.291  0.00  0.00    +0.000 C 
ENDROOT
BRANCH   5   7
ATOM      7  O   UNL     1      27.240   2.659  54.037  0.00  0.00    +0.000 OA
ATOM      8  H   UNL     1      27.847   2.797  54.781  0.00  0.00    +0.000 HD
ENDBRANCH   5   7
BRANCH   6   9
ATOM      9  C   UNL     1      24.014   0.742  53.812  0.00  0.00    +0.000 C 
ATOM     10  C   UNL     1      23.250  -0.153  53.153  0.00  0.00    +0.000 C 
BRANCH  10  11
ATOM     11  C   UNL     1      22.084  -0.902  53.758  0.00  0.00    +0.000 C 
BRANCH  11  12
ATOM     12  C   UNL     1      20.692  -0.178  53.729  0.00  0.00    +0.000 C 
ATOM     13  C   UNL     1      19.629  -1.251  53.434  0.00  0.00    +0.000 C 
BRANCH  12  14
ATOM     14  O   UNL     1      20.422   0.345  55.040  0.00  0.00    +0.000 OA
ATOM     15  H   UNL     1      19.686   0.976  54.990  0.00  0.00    +0.000 HD
ENDBRANCH  12  14
BRANCH  12  16
ATOM     16  C   UNL     1      20.601   1.014  52.720  0.00  0.00    +0.000 C 
BRANCH  16  17
ATOM     17  C   UNL     1      20.377   0.567  51.251  0.00  0.00    +0.000 C 
BRANCH  17  18
ATOM     18  C   UNL     1      21.545   0.773  50.260  0.00  0.00    +0.000 C 
ATOM     19  C   UNL     1      22.493   1.923  50.605  0.00  0.00    +0.000 C 
ATOM     20  C   UNL     1      22.903   2.589  49.290  0.00  0.00    +0.000 C 
ATOM     21  C   UNL     1      22.102   1.928  48.180  0.00  0.00    +0.000 C 
ATOM     22  C   UNL     1      21.003   1.139  48.869  0.00  0.00    +0.000 C 
ENDBRANCH  17  18
ENDBRANCH  16  17
ENDBRANCH  12  16
ENDBRANCH  11  12
ENDBRANCH  10  11
ENDBRANCH   6   9
BRANCH   1  23
ATOM     23  C   UNL     1      26.785   1.739  51.138  0.00  0.00    +0.000 C 
BRANCH  23  24
ATOM     24  C   UNL     1      26.225   3.118  50.769  0.00  0.00    +0.000 C 
BRANCH  24  26
ATOM     25  C   UNL     1      26.700   4.832  48.911  0.00  0.00    +0.000 C 
ATOM     26  C   UNL     1      26.794   3.603  49.455  0.00  0.00    +0.000 C 
BRANCH  25  27
ATOM     27  C   UNL     1      25.999   6.024  49.513  0.00  0.00    +0.000 C 
BRANCH  27  28
ATOM     28  C   UNL     1      24.480   5.974  49.319  0.00  0.00    +0.000 C 
BRANCH  28  29
ATOM     29  C   UNL     1      23.771   6.608  50.491  0.00  0.00    +0.000 C 
ATOM     30  O   UNL     1      23.927   7.758  50.873  0.00  0.00    +0.000 OA
BRANCH  29  32
ATOM     31  C   UNL     1      23.421   5.092  52.241  0.00  0.00    +0.000 C 
ATOM     32  O   UNL     1      22.914   5.709  51.056  0.00  0.00    +0.000 OA
ENDBRANCH  29  32
ENDBRANCH  28  29
ENDBRANCH  27  28
ENDBRANCH  25  27
ENDBRANCH  24  26
ENDBRANCH  23  24
ENDBRANCH   1  23
TORSDOF 15
ENDMDL
MODEL 2
REMARK VINA RESULT:    -7.131      1.910      5.824
REMARK INTER + INTRA:         -15.706
REMARK INTER:                 -12.962
REMARK INTRA:                  -2.744
REMARK UNBOUND:                -2.738
REMARK  Name = 
REMARK  17 active torsions:
REMARK  status: ('A' for Active; 'I' for Inactive)
REMARK    1  A    between atoms: C_1  and  O_2
REMARK    2  A    between atoms: O_2  and  C_3
REMARK    3  A    between atoms: C_3  and  C_5
REMARK    4  A    between atoms: C_5  and  C_6
REMARK    5  A    between atoms: C_6  and  C_7
REMARK    6  A    between atoms: C_8  and  C_9
REMARK    7  A    between atoms: C_9  and  C_10
REMARK    8  A    between atoms: C_10  and  C_11
REMARK    9  A    between atoms: C_15  and  O_16
REMARK   10  A    between atoms: C_17  and  C_18
REMARK   11  A    between atoms: C_19  and  C_20
REMARK   12  A    between atoms: C_20  and  C_21
REMARK   13  A    between atoms: C_21  and  C_22
REMARK   14  A    between atoms: C_21  and  O_23
REMARK   15  A    between atoms: C_21  and  C_24
REMARK   16  A    between atoms: C_24  and  C_25
REMARK   17  A    between atoms: C_25  and  C_26
REMARK                            x       y       z     vdW  Elec       q    Type
REMARK                         _______ _______ _______ _____ _____    ______ ____
ROOT
ATOM      1  C   UNL     1      24.658   3.002  50.386  0.00  0.00    +0.000 C 
ATOM      2  C   UNL     1      23.926   3.814  51.433  0.00  0.00    +0.000 C 
ATOM      3  O   UNL     1      23.848   3.493  52.615  0.00  0.00    +0.000 OA
ATOM      4  C   UNL     1      23.347   5.096  50.888  0.00  0.00    +0.000 C 
ATOM      5  C   UNL     1      23.688   5.012  49.402  0.00  0.00    +0.000 C 
ATOM      6  C   UNL     1      23.932   3.518  49.113  0.00  0.00    +0.000 C 
ENDROOT
BRANCH   5   7
ATOM      7  O   UNL     1      24.875   5.750  49.113  0.00  0.00    +0.000 OA
ATOM      8  H   UNL     1      25.515   5.628  49.831  0.00  0.00    +0.000 HD
ENDBRANCH   5   7
BRANCH   6   9
ATOM      9  C   UNL     1      22.643   2.742  48.791  0.00  0.00    +0.000 C 
ATOM     10  C   UNL     1      22.110   1.703  49.466  0.00  0.00    +0.000 C 
BRANCH  10  11
ATOM     11  C   UNL     1      20.798   1.032  49.123  0.00  0.00    +0.000 C 
BRANCH  11  12
ATOM     12  C   UNL     1      19.605   1.275  50.113  0.00  0.00    +0.000 C 
ATOM     13  C   UNL     1      19.427   2.799  50.242  0.00  0.00    +0.000 C 
BRANCH  12  14
ATOM     14  O   UNL     1      18.406   0.752  49.520  0.00  0.00    +0.000 OA
ATOM     15  H   UNL     1      18.248   1.191  48.669  0.00  0.00    +0.000 HD
ENDBRANCH  12  14
BRANCH  12  16
ATOM     16  C   UNL     1      19.773   0.595  51.512  0.00  0.00    +0.000 C 
BRANCH  16  17
ATOM     17  C   UNL     1      20.348   1.543  52.597  0.00  0.00    +0.000 C 
BRANCH  17  18
ATOM     18  C   UNL     1      21.498   1.003  53.477  0.00  0.00    +0.000 C 
ATOM     19  C   UNL     1      22.532   0.150  52.738  0.00  0.00    +0.000 C 
ATOM     20  C   UNL     1      22.949  -0.981  53.680  0.00  0.00    +0.000 C 
ATOM     21  C   UNL     1      22.073  -0.883  54.919  0.00  0.00    +0.000 C 
ATOM     22  C   UNL     1      20.942   0.064  54.559  0.00  0.00    +0.000 C 
ENDBRANCH  17  18
ENDBRANCH  16  17
ENDBRANCH  12  16
ENDBRANCH  11  12
ENDBRANCH  10  11
ENDBRANCH   6   9
BRANCH   1  23
ATOM     23  C   UNL     1      26.157   3.352  50.552  0.00  0.00    +0.000 C 
BRANCH  23  24
ATOM     24  C   UNL     1      26.924   2.525  51.591  0.00  0.00    +0.000 C 
BRANCH  24  26
ATOM     25  C   UNL     1      26.212   0.339  52.743  0.00  0.00    +0.000 C 
ATOM     26  C   UNL     1      26.399   1.108  51.653  0.00  0.00    +0.000 C 
BRANCH  25  27
ATOM     27  C   UNL     1      26.480   0.733  54.173  0.00  0.00    +0.000 C 
BRANCH  27  28
ATOM     28  C   UNL     1      27.705   0.024  54.760  0.00  0.00    +0.000 C 
BRANCH  28  29
ATOM     29  C   UNL     1      28.980   0.680  54.288  0.00  0.00    +0.000 C 
ATOM     30  O   UNL     1      29.149   1.884  54.162  0.00  0.00    +0.000 OA
BRANCH  29  32
ATOM     31  C   UNL     1      29.430  -1.402  53.317  0.00  0.00    +0.000 C 
ATOM     32  O   UNL     1      29.925  -0.270  54.035  0.00  0.00    +0.000 OA
ENDBRANCH  29  32
ENDBRANCH  28  29
ENDBRANCH  27  28
ENDBRANCH  25  27
ENDBRANCH  24  26
ENDBRANCH  23  24
ENDBRANCH   1  23
TORSDOF 15
ENDMDL
MODEL 3
REMARK VINA RESULT:    -6.942      1.995      6.877
REMARK INTER + INTRA:         -15.361
REMARK INTER:                 -12.687
REMARK INTRA:                  -2.674
REMARK UNBOUND:                -2.738
REMARK  Name = 
REMARK  17 active torsions:
REMARK  status: ('A' for Active; 'I' for Inactive)
REMARK    1  A    between atoms: C_1  and  O_2
REMARK    2  A    between atoms: O_2  and  C_3
REMARK    3  A    between atoms: C_3  and  C_5
REMARK    4  A    between atoms: C_5  and  C_6
REMARK    5  A    between atoms: C_6  and  C_7
REMARK    6  A    between atoms: C_8  and  C_9
REMARK    7  A    between atoms: C_9  and  C_10
REMARK    8  A    between atoms: C_10  and  C_11
REMARK    9  A    between atoms: C_15  and  O_16
REMARK   10  A    between atoms: C_17  and  C_18
REMARK   11  A    between atoms: C_19  and  C_20
REMARK   12  A    between atoms: C_20  and  C_21
REMARK   13  A    between atoms: C_21  and  C_22
REMARK   14  A    between atoms: C_21  and  O_23
REMARK   15  A    between atoms: C_21  and  C_24
REMARK   16  A    between atoms: C_24  and  C_25
REMARK   17  A    between atoms: C_25  and  C_26
REMARK                            x       y       z     vdW  Elec       q    Type
REMARK                         _______ _______ _______ _____ _____    ______ ____
ROOT
ATOM      1  C   UNL     1      23.846   2.874  50.671  0.00  0.00    +0.000 C 
ATOM      2  C   UNL     1      24.227   4.316  50.414  0.00  0.00    +0.000 C 
ATOM      3  O   UNL     1      24.866   4.691  49.436  0.00  0.00    +0.000 OA
ATOM      4  C   UNL     1      23.689   5.264  51.458  0.00  0.00    +0.000 C 
ATOM      5  C   UNL     1      23.006   4.321  52.446  0.00  0.00    +0.000 C 
ATOM      6  C   UNL     1      23.641   2.936  52.210  0.00  0.00    +0.000 C 
ENDROOT
BRANCH   5   7
ATOM      7  O   UNL     1      21.604   4.249  52.188  0.00  0.00    +0.000 OA
ATOM      8  H   UNL     1      21.122   4.213  53.029  0.00  0.00    +0.000 HD
ENDBRANCH   5   7
BRANCH   6   9
ATOM      9  C   UNL     1      24.940   2.719  53.006  0.00  0.00    +0.000 C 
ATOM     10  C   UNL     1      26.027   2.007  52.642  0.00  0.00    +0.000 C 
BRANCH  10  11
ATOM     11  C   UNL     1      27.296   1.894  53.456  0.00  0.00    +0.000 C 
BRANCH  11  12
ATOM     12  C   UNL     1      27.494   0.565  54.266  0.00  0.00    +0.000 C 
ATOM     13  C   UNL     1      27.779  -0.550  53.243  0.00  0.00    +0.000 C 
BRANCH  12  14
ATOM     14  O   UNL     1      28.664   0.701  55.088  0.00  0.00    +0.000 OA
ATOM     15  H   UNL     1      29.065   1.572  54.939  0.00  0.00    +0.000 HD
ENDBRANCH  12  14
BRANCH  12  16
ATOM     16  C   UNL     1      26.300   0.191  55.204  0.00  0.00    +0.000 C 
BRANCH  16  17
ATOM     17  C   UNL     1      25.344  -0.870  54.599  0.00  0.00    +0.000 C 
BRANCH  17  18
ATOM     18  C   UNL     1      23.842  -0.513  54.521  0.00  0.00    +0.000 C 
ATOM     19  C   UNL     1      22.911  -1.457  55.284  0.00  0.00    +0.000 C 
ATOM     20  C   UNL     1      21.638  -1.616  54.450  0.00  0.00    +0.000 C 
ATOM     21  C   UNL     1      21.862  -0.881  53.139  0.00  0.00    +0.000 C 
ATOM     22  C   UNL     1      23.352  -0.596  53.067  0.00  0.00    +0.000 C 
ENDBRANCH  17  18
ENDBRANCH  16  17
ENDBRANCH  12  16
ENDBRANCH  11  12
ENDBRANCH  10  11
ENDBRANCH   6   9
BRANCH   1  23
ATOM     23  C   UNL     1      22.603   2.603  49.789  0.00  0.00    +0.000 C 
BRANCH  23  24
ATOM     24  C   UNL     1      21.833   1.314  50.100  0.00  0.00    +0.000 C 
BRANCH  24  26
ATOM     25  C   UNL     1      19.302   0.892  49.919  0.00  0.00    +0.000 C 
ATOM     26  C   UNL     1      20.482   1.309  49.420  0.00  0.00    +0.000 C 
BRANCH  25  27
ATOM     27  C   UNL     1      19.061   0.337  51.300  0.00  0.00    +0.000 C 
BRANCH  27  28
ATOM     28  C   UNL     1      17.594   0.443  51.729  0.00  0.00    +0.000 C 
BRANCH  28  29
ATOM     29  C   UNL     1      17.158  -0.805  52.457  0.00  0.00    +0.000 C 
ATOM     30  O   UNL     1      16.031  -1.277  52.435  0.00  0.00    +0.000 OA
BRANCH  29  32
ATOM     31  C   UNL     1      17.932  -2.604  53.739  0.00  0.00    +0.000 C 
ATOM     32  O   UNL     1      18.214  -1.341  53.133  0.00  0.00    +0.000 OA
ENDBRANCH  29  32
ENDBRANCH  28  29
ENDBRANCH  27  28
ENDBRANCH  25  27
ENDBRANCH  24  26
ENDBRANCH  23  24
ENDBRANCH   1  23
TORSDOF 15
ENDMDL
MODEL 4
REMARK VINA RESULT:    -6.935      2.859      5.901
REMARK INTER + INTRA:         -15.349
REMARK INTER:                 -13.248
REMARK INTRA:                  -2.101
REMARK UNBOUND:                -2.738
REMARK  Name = 
REMARK  17 active torsions:
REMARK  status: ('A' for Active; 'I' for Inactive)
REMARK    1  A    between atoms: C_1  and  O_2
REMARK    2  A    between atoms: O_2  and  C_3
REMARK    3  A    between atoms: C_3  and  C_5
REMARK    4  A    between atoms: C_5  and  C_6
REMARK    5  A    between atoms: C_6  and  C_7
REMARK    6  A    between atoms: C_8  and  C_9
REMARK    7  A    between atoms: C_9  and  C_10
REMARK    8  A    between atoms: C_10  and  C_11
REMARK    9  A    between atoms: C_15  and  O_16
REMARK   10  A    between atoms: C_17  and  C_18
REMARK   11  A    between atoms: C_19  and  C_20
REMARK   12  A    between atoms: C_20  and  C_21
REMARK   13  A    between atoms: C_21  and  C_22
REMARK   14  A    between atoms: C_21  and  O_23
REMARK   15  A    between atoms: C_21  and  C_24
REMARK   16  A    between atoms: C_24  and  C_25
REMARK   17  A    between atoms: C_25  and  C_26
REMARK                            x       y       z     vdW  Elec       q    Type
REMARK                         _______ _______ _______ _____ _____    ______ ____
ROOT
ATOM      1  C   UNL     1      24.922   4.304  50.401  0.00  0.00    +0.000 C 
ATOM      2  C   UNL     1      23.817   4.534  51.410  0.00  0.00    +0.000 C 
ATOM      3  O   UNL     1      23.848   5.408  52.271  0.00  0.00    +0.000 OA
ATOM      4  C   UNL     1      22.638   3.612  51.215  0.00  0.00    +0.000 C 
ATOM      5  C   UNL     1      23.097   2.723  50.062  0.00  0.00    +0.000 C 
ATOM      6  C   UNL     1      24.634   2.820  50.044  0.00  0.00    +0.000 C 
ENDROOT
BRANCH   5   7
ATOM      7  O   UNL     1      22.578   3.197  48.820  0.00  0.00    +0.000 OA
ATOM      8  H   UNL     1      21.609   3.183  48.848  0.00  0.00    +0.000 HD
ENDBRANCH   5   7
BRANCH   6   9
ATOM      9  C   UNL     1      25.319   1.823  50.996  0.00  0.00    +0.000 C 
ATOM     10  C   UNL     1      26.611   1.798  51.382  0.00  0.00    +0.000 C 
BRANCH  10  11
ATOM     11  C   UNL     1      27.196   0.820  52.376  0.00  0.00    +0.000 C 
BRANCH  11  12
ATOM     12  C   UNL     1      27.111   1.223  53.890  0.00  0.00    +0.000 C 
ATOM     13  C   UNL     1      28.296   0.547  54.605  0.00  0.00    +0.000 C 
BRANCH  12  14
ATOM     14  O   UNL     1      27.300   2.643  53.996  0.00  0.00    +0.000 OA
ATOM     15  H   UNL     1      26.485   3.053  54.326  0.00  0.00    +0.000 HD
ENDBRANCH  12  14
BRANCH  12  16
ATOM     16  C   UNL     1      25.751   0.876  54.580  0.00  0.00    +0.000 C 
BRANCH  16  17
ATOM     17  C   UNL     1      25.265  -0.571  54.303  0.00  0.00    +0.000 C 
BRANCH  17  18
ATOM     18  C   UNL     1      23.813  -0.750  53.806  0.00  0.00    +0.000 C 
ATOM     19  C   UNL     1      23.150   0.521  53.269  0.00  0.00    +0.000 C 
ATOM     20  C   UNL     1      21.683   0.490  53.705  0.00  0.00    +0.000 C 
ATOM     21  C   UNL     1      21.505  -0.719  54.607  0.00  0.00    +0.000 C 
ATOM     22  C   UNL     1      22.905  -1.185  54.968  0.00  0.00    +0.000 C 
ENDBRANCH  17  18
ENDBRANCH  16  17
ENDBRANCH  12  16
ENDBRANCH  11  12
ENDBRANCH  10  11
ENDBRANCH   6   9
BRANCH   1  23
ATOM     23  C   UNL     1      24.707   5.365  49.293  0.00  0.00    +0.000 C 
BRANCH  23  24
ATOM     24  C   UNL     1      25.974   6.065  48.787  0.00  0.00    +0.000 C 
BRANCH  24  26
ATOM     25  C   UNL     1      28.416   5.367  48.380  0.00  0.00    +0.000 C 
ATOM     26  C   UNL     1      27.149   5.114  48.760  0.00  0.00    +0.000 C 
BRANCH  25  27
ATOM     27  C   UNL     1      28.956   6.689  47.895  0.00  0.00    +0.000 C 
BRANCH  27  28
ATOM     28  C   UNL     1      30.487   6.742  47.914  0.00  0.00    +0.000 C 
BRANCH  28  29
ATOM     29  C   UNL     1      30.977   7.652  49.014  0.00  0.00    +0.000 C 
ATOM     30  O   UNL     1      32.063   7.566  49.570  0.00  0.00    +0.000 OA
BRANCH  29  32
ATOM     31  C   UNL     1      30.522   9.939  49.212  0.00  0.00    +0.000 C 
ATOM     32  O   UNL     1      30.035   8.598  49.288  0.00  0.00    +0.000 OA
ENDBRANCH  29  32
ENDBRANCH  28  29
ENDBRANCH  27  28
ENDBRANCH  25  27
ENDBRANCH  24  26
ENDBRANCH  23  24
ENDBRANCH   1  23
TORSDOF 15
ENDMDL
MODEL 5
REMARK VINA RESULT:    -6.859      2.150      5.609
REMARK INTER + INTRA:         -15.210
REMARK INTER:                 -11.816
REMARK INTRA:                  -3.394
REMARK UNBOUND:                -2.738
REMARK  Name = 
REMARK  17 active torsions:
REMARK  status: ('A' for Active; 'I' for Inactive)
REMARK    1  A    between atoms: C_1  and  O_2
REMARK    2  A    between atoms: O_2  and  C_3
REMARK    3  A    between atoms: C_3  and  C_5
REMARK    4  A    between atoms: C_5  and  C_6
REMARK    5  A    between atoms: C_6  and  C_7
REMARK    6  A    between atoms: C_8  and  C_9
REMARK    7  A    between atoms: C_9  and  C_10
REMARK    8  A    between atoms: C_10  and  C_11
REMARK    9  A    between atoms: C_15  and  O_16
REMARK   10  A    between atoms: C_17  and  C_18
REMARK   11  A    between atoms: C_19  and  C_20
REMARK   12  A    between atoms: C_20  and  C_21
REMARK   13  A    between atoms: C_21  and  C_22
REMARK   14  A    between atoms: C_21  and  O_23
REMARK   15  A    between atoms: C_21  and  C_24
REMARK   16  A    between atoms: C_24  and  C_25
REMARK   17  A    between atoms: C_25  and  C_26
REMARK                            x       y       z     vdW  Elec       q    Type
REMARK                         _______ _______ _______ _____ _____    ______ ____
ROOT
ATOM      1  C   UNL     1      23.764   3.777  50.512  0.00  0.00    +0.000 C 
ATOM      2  C   UNL     1      24.642   5.009  50.452  0.00  0.00    +0.000 C 
ATOM      3  O   UNL     1      25.555   5.159  49.647  0.00  0.00    +0.000 OA
ATOM      4  C   UNL     1      24.241   6.068  51.449  0.00  0.00    +0.000 C 
ATOM      5  C   UNL     1      23.098   5.398  52.208  0.00  0.00    +0.000 C 
ATOM      6  C   UNL     1      23.278   3.884  51.984  0.00  0.00    +0.000 C 
ENDROOT
BRANCH   5   7
ATOM      7  O   UNL     1      21.836   5.808  51.684  0.00  0.00    +0.000 OA
ATOM      8  H   UNL     1      21.306   5.026  51.467  0.00  0.00    +0.000 HD
ENDBRANCH   5   7
BRANCH   6   9
ATOM      9  C   UNL     1      24.239   3.230  52.991  0.00  0.00    +0.000 C 
ATOM     10  C   UNL     1      25.153   2.265  52.759  0.00  0.00    +0.000 C 
BRANCH  10  11
ATOM     11  C   UNL     1      26.111   1.717  53.793  0.00  0.00    +0.000 C 
BRANCH  11  12
ATOM     12  C   UNL     1      26.192   0.155  53.916  0.00  0.00    +0.000 C 
ATOM     13  C   UNL     1      26.646  -0.383  52.546  0.00  0.00    +0.000 C 
BRANCH  12  14
ATOM     14  O   UNL     1      27.216  -0.176  54.867  0.00  0.00    +0.000 OA
ATOM     15  H   UNL     1      28.075   0.136  54.540  0.00  0.00    +0.000 HD
ENDBRANCH  12  14
BRANCH  12  16
ATOM     16  C   UNL     1      24.869  -0.530  54.391  0.00  0.00    +0.000 C 
BRANCH  16  17
ATOM     17  C   UNL     1      24.020  -1.114  53.232  0.00  0.00    +0.000 C 
BRANCH  17  18
ATOM     18  C   UNL     1      22.492  -0.893  53.288  0.00  0.00    +0.000 C 
ATOM     19  C   UNL     1      21.989   0.350  52.551  0.00  0.00    +0.000 C 
ATOM     20  C   UNL     1      20.850   0.945  53.382  0.00  0.00    +0.000 C 
ATOM     21  C   UNL     1      20.762   0.141  54.669  0.00  0.00    +0.000 C 
ATOM     22  C   UNL     1      22.040  -0.677  54.741  0.00  0.00    +0.000 C 
ENDBRANCH  17  18
ENDBRANCH  16  17
ENDBRANCH  12  16
ENDBRANCH  11  12
ENDBRANCH  10  11
ENDBRANCH   6   9
BRANCH   1  23
ATOM     23  C   UNL     1      22.711   3.954  49.391  0.00  0.00    +0.000 C 
BRANCH  23  24
ATOM     24  C   UNL     1      22.595   2.794  48.395  0.00  0.00    +0.000 C 
BRANCH  24  26
ATOM     25  C   UNL     1      20.742   1.311  49.387  0.00  0.00    +0.000 C 
ATOM     26  C   UNL     1      22.025   1.561  49.060  0.00  0.00    +0.000 C 
BRANCH  25  27
ATOM     27  C   UNL     1      19.565   2.222  49.147  0.00  0.00    +0.000 C 
BRANCH  27  28
ATOM     28  C   UNL     1      18.618   2.290  50.349  0.00  0.00    +0.000 C 
BRANCH  28  29
ATOM     29  C   UNL     1      18.805   3.582  51.106  0.00  0.00    +0.000 C 
ATOM     30  O   UNL     1      19.791   3.878  51.765  0.00  0.00    +0.000 OA
BRANCH  29  32
ATOM     31  C   UNL     1      16.592   4.012  51.734  0.00  0.00    +0.000 C 
ATOM     32  O   UNL     1      17.715   4.383  50.933  0.00  0.00    +0.000 OA
ENDBRANCH  29  32
ENDBRANCH  28  29
ENDBRANCH  27  28
ENDBRANCH  25  27
ENDBRANCH  24  26
ENDBRANCH  23  24
ENDBRANCH   1  23
TORSDOF 15
ENDMDL
MODEL 6
REMARK VINA RESULT:    -6.837      1.802      5.919
REMARK INTER + INTRA:         -15.171
REMARK INTER:                 -12.007
REMARK INTRA:                  -3.164
REMARK UNBOUND:                -2.738
REMARK  Name = 
REMARK  17 active torsions:
REMARK  status: ('A' for Active; 'I' for Inactive)
REMARK    1  A    between atoms: C_1  and  O_2
REMARK    2  A    between atoms: O_2  and  C_3
REMARK    3  A    between atoms: C_3  and  C_5
REMARK    4  A    between atoms: C_5  and  C_6
REMARK    5  A    between atoms: C_6  and  C_7
REMARK    6  A    between atoms: C_8  and  C_9
REMARK    7  A    between atoms: C_9  and  C_10
REMARK    8  A    between atoms: C_10  and  C_11
REMARK    9  A    between atoms: C_15  and  O_16
REMARK   10  A    between atoms: C_17  and  C_18
REMARK   11  A    between atoms: C_19  and  C_20
REMARK   12  A    between atoms: C_20  and  C_21
REMARK   13  A    between atoms: C_21  and  C_22
REMARK   14  A    between atoms: C_21  and  O_23
REMARK   15  A    between atoms: C_21  and  C_24
REMARK   16  A    between atoms: C_24  and  C_25
REMARK   17  A    between atoms: C_25  and  C_26
REMARK                            x       y       z     vdW  Elec       q    Type
REMARK                         _______ _______ _______ _____ _____    ______ ____
ROOT
ATOM      1  C   UNL     1      24.340   5.033  48.807  0.00  0.00    +0.000 C 
ATOM      2  C   UNL     1      25.191   6.268  49.011  0.00  0.00    +0.000 C 
ATOM      3  O   UNL     1      25.880   6.776  48.131  0.00  0.00    +0.000 OA
ATOM      4  C   UNL     1      25.064   6.852  50.396  0.00  0.00    +0.000 C 
ATOM      5  C   UNL     1      24.135   5.860  51.093  0.00  0.00    +0.000 C 
ATOM      6  C   UNL     1      24.234   4.554  50.282  0.00  0.00    +0.000 C 
ENDROOT
BRANCH   5   7
ATOM      7  O   UNL     1      22.788   6.329  51.072  0.00  0.00    +0.000 OA
ATOM      8  H   UNL     1      22.181   5.577  51.148  0.00  0.00    +0.000 HD
ENDBRANCH   5   7
BRANCH   6   9
ATOM      9  C   UNL     1      25.406   3.655  50.715  0.00  0.00    +0.000 C 
ATOM     10  C   UNL     1      25.352   2.495  51.402  0.00  0.00    +0.000 C 
BRANCH  10  11
ATOM     11  C   UNL     1      26.549   1.634  51.735  0.00  0.00    +0.000 C 
BRANCH  11  12
ATOM     12  C   UNL     1      26.822   1.369  53.257  0.00  0.00    +0.000 C 
ATOM     13  C   UNL     1      28.068   0.469  53.344  0.00  0.00    +0.000 C 
BRANCH  12  14
ATOM     14  O   UNL     1      27.151   2.618  53.886  0.00  0.00    +0.000 OA
ATOM     15  H   UNL     1      27.798   3.094  53.342  0.00  0.00    +0.000 HD
ENDBRANCH  12  14
BRANCH  12  16
ATOM     16  C   UNL     1      25.614   0.754  54.037  0.00  0.00    +0.000 C 
BRANCH  16  17
ATOM     17  C   UNL     1      25.081  -0.564  53.417  0.00  0.00    +0.000 C 
BRANCH  17  18
ATOM     18  C   UNL     1      23.549  -0.755  53.360  0.00  0.00    +0.000 C 
ATOM     19  C   UNL     1      22.760   0.469  52.889  0.00  0.00    +0.000 C 
ATOM     20  C   UNL     1      21.471   0.526  53.711  0.00  0.00    +0.000 C 
ATOM     21  C   UNL     1      21.550  -0.576  54.754  0.00  0.00    +0.000 C 
ATOM     22  C   UNL     1      22.997  -1.038  54.767  0.00  0.00    +0.000 C 
ENDBRANCH  17  18
ENDBRANCH  16  17
ENDBRANCH  12  16
ENDBRANCH  11  12
ENDBRANCH  10  11
ENDBRANCH   6   9
BRANCH   1  23
ATOM     23  C   UNL     1      23.045   5.523  48.114  0.00  0.00    +0.000 C 
BRANCH  23  24
ATOM     24  C   UNL     1      21.892   4.513  48.065  0.00  0.00    +0.000 C 
BRANCH  24  26
ATOM     25  C   UNL     1      22.463   2.016  47.833  0.00  0.00    +0.000 C 
ATOM     26  C   UNL     1      22.301   3.256  47.331  0.00  0.00    +0.000 C 
BRANCH  25  27
ATOM     27  C   UNL     1      22.256   1.598  49.267  0.00  0.00    +0.000 C 
BRANCH  27  28
ATOM     28  C   UNL     1      20.811   1.180  49.556  0.00  0.00    +0.000 C 
BRANCH  28  29
ATOM     29  C   UNL     1      20.141   2.173  50.474  0.00  0.00    +0.000 C 
ATOM     30  O   UNL     1      18.937   2.250  50.672  0.00  0.00    +0.000 OA
BRANCH  29  32
ATOM     31  C   UNL     1      20.562   3.800  52.103  0.00  0.00    +0.000 C 
ATOM     32  O   UNL     1      21.080   2.965  51.065  0.00  0.00    +0.000 OA
ENDBRANCH  29  32
ENDBRANCH  28  29
ENDBRANCH  27  28
ENDBRANCH  25  27
ENDBRANCH  24  26
ENDBRANCH  23  24
ENDBRANCH   1  23
TORSDOF 15
ENDMDL
MODEL 7
REMARK VINA RESULT:    -6.826      1.742      5.317
REMARK INTER + INTRA:         -15.151
REMARK INTER:                 -11.631
REMARK INTRA:                  -3.520
REMARK UNBOUND:                -2.738
REMARK  Name = 
REMARK  17 active torsions:
REMARK  status: ('A' for Active; 'I' for Inactive)
REMARK    1  A    between atoms: C_1  and  O_2
REMARK    2  A    between atoms: O_2  and  C_3
REMARK    3  A    between atoms: C_3  and  C_5
REMARK    4  A    between atoms: C_5  and  C_6
REMARK    5  A    between atoms: C_6  and  C_7
REMARK    6  A    between atoms: C_8  and  C_9
REMARK    7  A    between atoms: C_9  and  C_10
REMARK    8  A    between atoms: C_10  and  C_11
REMARK    9  A    between atoms: C_15  and  O_16
REMARK   10  A    between atoms: C_17  and  C_18
REMARK   11  A    between atoms: C_19  and  C_20
REMARK   12  A    between atoms: C_20  and  C_21
REMARK   13  A    between atoms: C_21  and  C_22
REMARK   14  A    between atoms: C_21  and  O_23
REMARK   15  A    between atoms: C_21  and  C_24
REMARK   16  A    between atoms: C_24  and  C_25
REMARK   17  A    between atoms: C_25  and  C_26
REMARK                            x       y       z     vdW  Elec       q    Type
REMARK                         _______ _______ _______ _____ _____    ______ ____
ROOT
ATOM      1  C   UNL     1      21.754   0.833  51.873  0.00  0.00    +0.000 C 
ATOM      2  C   UNL     1      21.053   1.813  52.790  0.00  0.00    +0.000 C 
ATOM      3  O   UNL     1      20.906   3.004  52.534  0.00  0.00    +0.000 OA
ATOM      4  C   UNL     1      20.496   1.163  54.033  0.00  0.00    +0.000 C 
ATOM      5  C   UNL     1      20.958  -0.285  53.888  0.00  0.00    +0.000 C 
ATOM      6  C   UNL     1      22.152  -0.249  52.914  0.00  0.00    +0.000 C 
ENDROOT
BRANCH   5   7
ATOM      7  O   UNL     1      19.921  -1.094  53.337  0.00  0.00    +0.000 OA
ATOM      8  H   UNL     1      19.332  -0.543  52.799  0.00  0.00    +0.000 HD
ENDBRANCH   5   7
BRANCH   6   9
ATOM      9  C   UNL     1      23.495   0.039  53.607  0.00  0.00    +0.000 C 
ATOM     10  C   UNL     1      24.526  -0.809  53.803  0.00  0.00    +0.000 C 
BRANCH  10  11
ATOM     11  C   UNL     1      25.845  -0.431  54.438  0.00  0.00    +0.000 C 
BRANCH  11  12
ATOM     12  C   UNL     1      27.112  -0.495  53.515  0.00  0.00    +0.000 C 
ATOM     13  C   UNL     1      28.249   0.235  54.255  0.00  0.00    +0.000 C 
BRANCH  12  14
ATOM     14  O   UNL     1      27.506  -1.869  53.374  0.00  0.00    +0.000 OA
ATOM     15  H   UNL     1      26.735  -2.402  53.125  0.00  0.00    +0.000 HD
ENDBRANCH  12  14
BRANCH  12  16
ATOM     16  C   UNL     1      26.900   0.083  52.077  0.00  0.00    +0.000 C 
BRANCH  16  17
ATOM     17  C   UNL     1      26.798   1.630  52.039  0.00  0.00    +0.000 C 
BRANCH  17  18
ATOM     18  C   UNL     1      25.632   2.247  51.233  0.00  0.00    +0.000 C 
ATOM     19  C   UNL     1      26.048   3.261  50.164  0.00  0.00    +0.000 C 
ATOM     20  C   UNL     1      24.997   4.372  50.154  0.00  0.00    +0.000 C 
ATOM     21  C   UNL     1      24.034   4.093  51.296  0.00  0.00    +0.000 C 
ATOM     22  C   UNL     1      24.705   3.043  52.164  0.00  0.00    +0.000 C 
ENDBRANCH  17  18
ENDBRANCH  16  17
ENDBRANCH  12  16
ENDBRANCH  11  12
ENDBRANCH  10  11
ENDBRANCH   6   9
BRANCH   1  23
ATOM     23  C   UNL     1      20.712   0.446  50.794  0.00  0.00    +0.000 C 
BRANCH  23  24
ATOM     24  C   UNL     1      20.809   1.211  49.469  0.00  0.00    +0.000 C 
BRANCH  24  26
ATOM     25  C   UNL     1      22.701   2.425  48.221  0.00  0.00    +0.000 C 
ATOM     26  C   UNL     1      22.244   1.555  49.142  0.00  0.00    +0.000 C 
BRANCH  25  27
ATOM     27  C   UNL     1      21.863   3.276  47.300  0.00  0.00    +0.000 C 
BRANCH  27  28
ATOM     28  C   UNL     1      22.074   4.776  47.530  0.00  0.00    +0.000 C 
BRANCH  28  29
ATOM     29  C   UNL     1      21.327   5.239  48.757  0.00  0.00    +0.000 C 
ATOM     30  O   UNL     1      20.278   4.764  49.166  0.00  0.00    +0.000 OA
BRANCH  29  32
ATOM     31  C   UNL     1      21.441   6.679  50.598  0.00  0.00    +0.000 C 
ATOM     32  O   UNL     1      22.005   6.261  49.354  0.00  0.00    +0.000 OA
ENDBRANCH  29  32
ENDBRANCH  28  29
ENDBRANCH  27  28
ENDBRANCH  25  27
ENDBRANCH  24  26
ENDBRANCH  23  24
ENDBRANCH   1  23
TORSDOF 15
ENDMDL
MODEL 8
REMARK VINA RESULT:    -6.757      2.397      5.126
REMARK INTER + INTRA:         -15.026
REMARK INTER:                 -12.715
REMARK INTRA:                  -2.311
REMARK UNBOUND:                -2.738
REMARK  Name = 
REMARK  17 active torsions:
REMARK  status: ('A' for Active; 'I' for Inactive)
REMARK    1  A    between atoms: C_1  and  O_2
REMARK    2  A    between atoms: O_2  and  C_3
REMARK    3  A    between atoms: C_3  and  C_5
REMARK    4  A    between atoms: C_5  and  C_6
REMARK    5  A    between atoms: C_6  and  C_7
REMARK    6  A    between atoms: C_8  and  C_9
REMARK    7  A    between atoms: C_9  and  C_10
REMARK    8  A    between atoms: C_10  and  C_11
REMARK    9  A    between atoms: C_15  and  O_16
REMARK   10  A    between atoms: C_17  and  C_18
REMARK   11  A    between atoms: C_19  and  C_20
REMARK   12  A    between atoms: C_20  and  C_21
REMARK   13  A    between atoms: C_21  and  C_22
REMARK   14  A    between atoms: C_21  and  O_23
REMARK   15  A    between atoms: C_21  and  C_24
REMARK   16  A    between atoms: C_24  and  C_25
REMARK   17  A    between atoms: C_25  and  C_26
REMARK                            x       y       z     vdW  Elec       q    Type
REMARK                         _______ _______ _______ _____ _____    ______ ____
ROOT
ATOM      1  C   UNL     1      22.975   2.886  49.905  0.00  0.00    +0.000 C 
ATOM      2  C   UNL     1      21.945   3.992  49.822  0.00  0.00    +0.000 C 
ATOM      3  O   UNL     1      21.918   4.958  50.577  0.00  0.00    +0.000 OA
ATOM      4  C   UNL     1      20.983   3.818  48.673  0.00  0.00    +0.000 C 
ATOM      5  C   UNL     1      21.416   2.482  48.073  0.00  0.00    +0.000 C 
ATOM      6  C   UNL     1      22.188   1.753  49.190  0.00  0.00    +0.000 C 
ENDROOT
BRANCH   5   7
ATOM      7  O   UNL     1      22.280   2.686  46.956  0.00  0.00    +0.000 OA
ATOM      8  H   UNL     1      21.822   2.427  46.141  0.00  0.00    +0.000 HD
ENDBRANCH   5   7
BRANCH   6   9
ATOM      9  C   UNL     1      21.277   0.954  50.138  0.00  0.00    +0.000 C 
ATOM     10  C   UNL     1      21.402   0.798  51.473  0.00  0.00    +0.000 C 
BRANCH  10  11
ATOM     11  C   UNL     1      20.424   0.047  52.348  0.00  0.00    +0.000 C 
BRANCH  11  12
ATOM     12  C   UNL     1      21.016  -0.653  53.622  0.00  0.00    +0.000 C 
ATOM     13  C   UNL     1      20.977   0.379  54.764  0.00  0.00    +0.000 C 
BRANCH  12  14
ATOM     14  O   UNL     1      20.148  -1.736  53.993  0.00  0.00    +0.000 OA
ATOM     15  H   UNL     1      20.676  -2.536  54.143  0.00  0.00    +0.000 HD
ENDBRANCH  12  14
BRANCH  12  16
ATOM     16  C   UNL     1      22.451  -1.244  53.431  0.00  0.00    +0.000 C 
BRANCH  16  17
ATOM     17  C   UNL     1      23.470  -0.755  54.493  0.00  0.00    +0.000 C 
BRANCH  17  18
ATOM     18  C   UNL     1      24.762  -0.077  53.981  0.00  0.00    +0.000 C 
ATOM     19  C   UNL     1      24.547   1.022  52.938  0.00  0.00    +0.000 C 
ATOM     20  C   UNL     1      25.685   0.916  51.921  0.00  0.00    +0.000 C 
ATOM     21  C   UNL     1      26.497  -0.318  52.279  0.00  0.00    +0.000 C 
ATOM     22  C   UNL     1      25.652  -1.105  53.265  0.00  0.00    +0.000 C 
ENDBRANCH  17  18
ENDBRANCH  16  17
ENDBRANCH  12  16
ENDBRANCH  11  12
ENDBRANCH  10  11
ENDBRANCH   6   9
BRANCH   1  23
ATOM     23  C   UNL     1      24.242   3.436  49.203  0.00  0.00    +0.000 C 
BRANCH  23  24
ATOM     24  C   UNL     1      25.314   4.023  50.129  0.00  0.00    +0.000 C 
BRANCH  24  26
ATOM     25  C   UNL     1      27.290   4.906  48.740  0.00  0.00    +0.000 C 
ATOM     26  C   UNL     1      26.681   3.964  49.485  0.00  0.00    +0.000 C 
BRANCH  25  27
ATOM     27  C   UNL     1      26.736   6.263  48.386  0.00  0.00    +0.000 C 
BRANCH  27  28
ATOM     28  C   UNL     1      27.829   7.261  47.990  0.00  0.00    +0.000 C 
BRANCH  28  29
ATOM     29  C   UNL     1      28.069   8.258  49.097  0.00  0.00    +0.000 C 
ATOM     30  O   UNL     1      27.218   8.676  49.867  0.00  0.00    +0.000 OA
BRANCH  29  32
ATOM     31  C   UNL     1      30.210   7.849  48.241  0.00  0.00    +0.000 C 
ATOM     32  O   UNL     1      29.386   8.615  49.122  0.00  0.00    +0.000 OA
ENDBRANCH  29  32
ENDBRANCH  28  29
ENDBRANCH  27  28
ENDBRANCH  25  27
ENDBRANCH  24  26
ENDBRANCH  23  24
ENDBRANCH   1  23
TORSDOF 15
ENDMDL
MODEL 9
REMARK VINA RESULT:    -6.661      1.826      5.842
REMARK INTER + INTRA:         -14.851
REMARK INTER:                 -12.488
REMARK INTRA:                  -2.363
REMARK UNBOUND:                -2.738
REMARK  Name = 
REMARK  17 active torsions:
REMARK  status: ('A' for Active; 'I' for Inactive)
REMARK    1  A    between atoms: C_1  and  O_2
REMARK    2  A    between atoms: O_2  and  C_3
REMARK    3  A    between atoms: C_3  and  C_5
REMARK    4  A    between atoms: C_5  and  C_6
REMARK    5  A    between atoms: C_6  and  C_7
REMARK    6  A    between atoms: C_8  and  C_9
REMARK    7  A    between atoms: C_9  and  C_10
REMARK    8  A    between atoms: C_10  and  C_11
REMARK    9  A    between atoms: C_15  and  O_16
REMARK   10  A    between atoms: C_17  and  C_18
REMARK   11  A    between atoms: C_19  and  C_20
REMARK   12  A    between atoms: C_20  and  C_21
REMARK   13  A    between atoms: C_21  and  C_22
REMARK   14  A    between atoms: C_21  and  O_23
REMARK   15  A    between atoms: C_21  and  C_24
REMARK   16  A    between atoms: C_24  and  C_25
REMARK   17  A    between atoms: C_25  and  C_26
REMARK                            x       y       z     vdW  Elec       q    Type
REMARK                         _______ _______ _______ _____ _____    ______ ____
ROOT
ATOM      1  C   UNL     1      23.284   4.232  49.689  0.00  0.00    +0.000 C 
ATOM      2  C   UNL     1      22.065   5.004  50.150  0.00  0.00    +0.000 C 
ATOM      3  O   UNL     1      21.966   5.528  51.255  0.00  0.00    +0.000 OA
ATOM      4  C   UNL     1      21.000   5.114  49.088  0.00  0.00    +0.000 C 
ATOM      5  C   UNL     1      21.584   4.293  47.941  0.00  0.00    +0.000 C 
ATOM      6  C   UNL     1      22.627   3.359  48.585  0.00  0.00    +0.000 C 
ENDROOT
BRANCH   5   7
ATOM      7  O   UNL     1      22.228   5.139  46.990  0.00  0.00    +0.000 OA
ATOM      8  H   UNL     1      21.660   5.899  46.796  0.00  0.00    +0.000 HD
ENDBRANCH   5   7
BRANCH   6   9
ATOM      9  C   UNL     1      22.022   2.050  49.124  0.00  0.00    +0.000 C 
ATOM     10  C   UNL     1      22.005   1.608  50.399  0.00  0.00    +0.000 C 
BRANCH  10  11
ATOM     11  C   UNL     1      21.331   0.336  50.861  0.00  0.00    +0.000 C 
BRANCH  11  12
ATOM     12  C   UNL     1      20.090   0.503  51.806  0.00  0.00    +0.000 C 
ATOM     13  C   UNL     1      19.953   2.006  52.112  0.00  0.00    +0.000 C 
BRANCH  12  14
ATOM     14  O   UNL     1      18.911   0.103  51.088  0.00  0.00    +0.000 OA
ATOM     15  H   UNL     1      18.759   0.715  50.351  0.00  0.00    +0.000 HD
ENDBRANCH  12  14
BRANCH  12  16
ATOM     16  C   UNL     1      20.152  -0.347  53.118  0.00  0.00    +0.000 C 
BRANCH  16  17
ATOM     17  C   UNL     1      21.298   0.072  54.075  0.00  0.00    +0.000 C 
BRANCH  17  18
ATOM     18  C   UNL     1      22.567  -0.810  54.095  0.00  0.00    +0.000 C 
ATOM     19  C   UNL     1      22.958  -1.351  55.473  0.00  0.00    +0.000 C 
ATOM     20  C   UNL     1      24.486  -1.327  55.555  0.00  0.00    +0.000 C 
ATOM     21  C   UNL     1      24.996  -0.655  54.292  0.00  0.00    +0.000 C 
ATOM     22  C   UNL     1      23.789   0.008  53.652  0.00  0.00    +0.000 C 
ENDBRANCH  17  18
ENDBRANCH  16  17
ENDBRANCH  12  16
ENDBRANCH  11  12
ENDBRANCH  10  11
ENDBRANCH   6   9
BRANCH   1  23
ATOM     23  C   UNL     1      24.315   5.299  49.245  0.00  0.00    +0.000 C 
BRANCH  23  24
ATOM     24  C   UNL     1      25.701   5.197  49.893  0.00  0.00    +0.000 C 
BRANCH  24  26
ATOM     25  C   UNL     1      26.662   2.816  50.041  0.00  0.00    +0.000 C 
ATOM     26  C   UNL     1      26.445   3.978  49.396  0.00  0.00    +0.000 C 
BRANCH  25  27
ATOM     27  C   UNL     1      26.190   2.463  51.429  0.00  0.00    +0.000 C 
BRANCH  27  28
ATOM     28  C   UNL     1      26.831   1.176  51.959  0.00  0.00    +0.000 C 
BRANCH  28  29
ATOM     29  C   UNL     1      27.932   1.492  52.941  0.00  0.00    +0.000 C 
ATOM     30  O   UNL     1      28.201   2.606  53.365  0.00  0.00    +0.000 OA
BRANCH  29  32
ATOM     31  C   UNL     1      28.618   0.121  54.710  0.00  0.00    +0.000 C 
ATOM     32  O   UNL     1      28.577   0.345  53.300  0.00  0.00    +0.000 OA
ENDBRANCH  29  32
ENDBRANCH  28  29
ENDBRANCH  27  28
ENDBRANCH  25  27
ENDBRANCH  24  26
ENDBRANCH  23  24
ENDBRANCH   1  23
TORSDOF 15
ENDMDL
