MODEL 1
REMARK VINA RESULT:    -9.551      0.000      0.000
REMARK INTER + INTRA:         -13.886
REMARK INTER:                 -12.901
REMARK INTRA:                  -0.985
REMARK UNBOUND:                -0.985
REMARK  Name = 
REMARK  7 active torsions:
REMARK  status: ('A' for Active; 'I' for Inactive)
REMARK    1  A    between atoms: C_1  and  C_2
REMARK    2  A    between atoms: C_2  and  C_12
REMARK    3  A    between atoms: C_3  and  C_4
REMARK    4  A    between atoms: C_4  and  N_5
REMARK    5  A    between atoms: C_16  and  O_17
REMARK    6  A    between atoms: O_17  and  C_18
REMARK    7  A    between atoms: C_18  and  C_19
REMARK                            x       y       z     vdW  Elec       q    Type
REMARK                         _______ _______ _______ _____ _____    ______ ____
ROOT
ATOM      1  C   UNL     1      23.736   0.833  52.723  0.00  0.00    +0.000 A 
ATOM      2  C   UNL     1      22.378   0.801  53.043  0.00  0.00    +0.000 A 
ATOM      3  C   UNL     1      21.526   1.806  52.588  0.00  0.00    +0.000 A 
ATOM      4  C   UNL     1      22.025   2.848  51.802  0.00  0.00    +0.000 A 
ATOM      5  C   UNL     1      23.373   2.883  51.448  0.00  0.00    +0.000 A 
ATOM      6  C   UNL     1      24.224   1.872  51.914  0.00  0.00    +0.000 A 
ENDROOT
BRANCH   1   8
ATOM      7  C   UNL     1      24.240  -0.772  54.583  0.00  0.00    +0.000 C 
ATOM      8  C   UNL     1      24.631  -0.204  53.251  0.00  0.00    +0.000 C 
ATOM      9  C   UNL     1      25.739  -0.527  52.549  0.00  0.00    +0.000 C 
BRANCH   9  10
ATOM     10  C   UNL     1      26.797  -1.532  52.934  0.00  0.00    +0.000 C 
BRANCH  10  11
ATOM     11  N   UNL     1      28.095  -0.884  52.812  0.00  0.00    +0.000 N 
ATOM     12  O   UNL     1      28.107   0.473  53.365  0.00  0.00    +0.000 OA
ATOM     13  C   UNL     1      29.322   0.660  54.036  0.00  0.00    +0.000 A 
ATOM     14  O   UNL     1      29.630   1.628  54.679  0.00  0.00    +0.000 OA
ATOM     15  N   UNL     1      30.019  -0.502  53.871  0.00  0.00    +0.000 N 
ATOM     16  C   UNL     1      29.218  -1.433  53.414  0.00  0.00    +0.000 A 
ATOM     17  O   UNL     1      29.386  -2.587  53.478  0.00  0.00    +0.000 OA
ATOM     18  H   UNL     1      30.976  -0.623  54.066  0.00  0.00    +0.000 HD
ENDBRANCH  10  11
ENDBRANCH   9  10
ENDBRANCH   1   8
BRANCH   5  19
ATOM     19  O   UNL     1      23.939   3.803  50.610  0.00  0.00    +0.000 OA
BRANCH  19  20
ATOM     20  C   UNL     1      25.192   3.451  50.023  0.00  0.00    +0.000 C 
BRANCH  20  21
ATOM     21  C   UNL     1      25.979   4.636  49.513  0.00  0.00    +0.000 A 
ATOM     22  C   UNL     1      25.605   5.937  49.897  0.00  0.00    +0.000 A 
ATOM     23  C   UNL     1      26.247   7.041  49.342  0.00  0.00    +0.000 A 
ATOM     24  C   UNL     1      27.425   6.859  48.593  0.00  0.00    +0.000 A 
ATOM     25  C   UNL     1      28.185   7.927  48.110  0.00  0.00    +0.000 A 
ATOM     26 CL   UNL     1      27.430   9.090  46.997  0.00  0.00    +0.000 Cl
ATOM     27  C   UNL     1      29.570   7.860  48.160  0.00  0.00    +0.000 A 
ATOM     28  C   UNL     1      30.160   6.620  48.356  0.00  0.00    +0.000 A 
ATOM     29  C   UNL     1      29.358   5.465  48.347  0.00  0.00    +0.000 A 
ATOM     30  C   UNL     1      27.970   5.574  48.521  0.00  0.00    +0.000 A 
ATOM     31  C   UNL     1      27.159   4.462  48.777  0.00  0.00    +0.000 A 
ENDBRANCH  20  21
ENDBRANCH  19  20
ENDBRANCH   5  19
TORSDOF 6
ENDMDL
MODEL 2
REMARK VINA RESULT:    -9.478      1.604      2.459
REMARK INTER + INTRA:         -13.787
REMARK INTER:                 -12.646
REMARK INTRA:                  -1.141
REMARK UNBOUND:                -0.985
REMARK  Name = 
REMARK  7 active torsions:
REMARK  status: ('A' for Active; 'I' for Inactive)
REMARK    1  A    between atoms: C_1  and  C_2
REMARK    2  A    between atoms: C_2  and  C_12
REMARK    3  A    between atoms: C_3  and  C_4
REMARK    4  A    between atoms: C_4  and  N_5
REMARK    5  A    between atoms: C_16  and  O_17
REMARK    6  A    between atoms: O_17  and  C_18
REMARK    7  A    between atoms: C_18  and  C_19
REMARK                            x       y       z     vdW  Elec       q    Type
REMARK                         _______ _______ _______ _____ _____    ______ ____
ROOT
ATOM      1  C   UNL     1      21.633   0.762  52.411  0.00  0.00    +0.000 A 
ATOM      2  C   UNL     1      20.593   0.236  51.642  0.00  0.00    +0.000 A 
ATOM      3  C   UNL     1      19.761   1.084  50.914  0.00  0.00    +0.000 A 
ATOM      4  C   UNL     1      19.965   2.467  50.944  0.00  0.00    +0.000 A 
ATOM      5  C   UNL     1      21.015   3.010  51.684  0.00  0.00    +0.000 A 
ATOM      6  C   UNL     1      21.844   2.150  52.417  0.00  0.00    +0.000 A 
ENDROOT
BRANCH   1   8
ATOM      7  C   UNL     1      21.730  -1.004  54.188  0.00  0.00    +0.000 C 
ATOM      8  C   UNL     1      22.470  -0.139  53.212  0.00  0.00    +0.000 C 
ATOM      9  C   UNL     1      23.812  -0.088  53.060  0.00  0.00    +0.000 C 
BRANCH   9  10
ATOM     10  C   UNL     1      24.841  -0.898  53.809  0.00  0.00    +0.000 C 
BRANCH  10  11
ATOM     11  N   UNL     1      26.159  -0.457  53.374  0.00  0.00    +0.000 N 
ATOM     12  O   UNL     1      26.867   0.314  54.399  0.00  0.00    +0.000 OA
ATOM     13  C   UNL     1      28.214  -0.067  54.380  0.00  0.00    +0.000 A 
ATOM     14  O   UNL     1      29.063   0.304  55.146  0.00  0.00    +0.000 OA
ATOM     15  N   UNL     1      28.324  -0.990  53.381  0.00  0.00    +0.000 N 
ATOM     16  C   UNL     1      27.128  -1.382  53.012  0.00  0.00    +0.000 A 
ATOM     17  O   UNL     1      26.865  -2.369  52.447  0.00  0.00    +0.000 OA
ATOM     18  H   UNL     1      29.171  -1.314  52.996  0.00  0.00    +0.000 HD
ENDBRANCH  10  11
ENDBRANCH   9  10
ENDBRANCH   1   8
BRANCH   5  19
ATOM     19  O   UNL     1      21.356   4.333  51.705  0.00  0.00    +0.000 OA
BRANCH  19  20
ATOM     20  C   UNL     1      22.610   4.664  52.303  0.00  0.00    +0.000 C 
BRANCH  20  21
ATOM     21  C   UNL     1      23.630   5.193  51.323  0.00  0.00    +0.000 A 
ATOM     22  C   UNL     1      24.019   6.544  51.384  0.00  0.00    +0.000 A 
ATOM     23  C   UNL     1      24.868   7.072  50.416  0.00  0.00    +0.000 A 
ATOM     24  C   UNL     1      25.533   6.208  49.524  0.00  0.00    +0.000 A 
ATOM     25  C   UNL     1      26.488   6.656  48.610  0.00  0.00    +0.000 A 
ATOM     26 CL   UNL     1      26.016   7.860  47.389  0.00  0.00    +0.000 Cl
ATOM     27  C   UNL     1      27.632   5.903  48.390  0.00  0.00    +0.000 A 
ATOM     28  C   UNL     1      27.638   4.580  48.808  0.00  0.00    +0.000 A 
ATOM     29  C   UNL     1      26.451   4.007  49.298  0.00  0.00    +0.000 A 
ATOM     30  C   UNL     1      25.394   4.830  49.715  0.00  0.00    +0.000 A 
ATOM     31  C   UNL     1      24.304   4.337  50.442  0.00  0.00    +0.000 A 
ENDBRANCH  20  21
ENDBRANCH  19  20
ENDBRANCH   5  19
TORSDOF 6
ENDMDL
MODEL 3
REMARK VINA RESULT:    -9.441      2.087      3.242
REMARK INTER + INTRA:         -13.738
REMARK INTER:                 -12.280
REMARK INTRA:                  -1.458
REMARK UNBOUND:                -0.985
REMARK  Name = 
REMARK  7 active torsions:
REMARK  status: ('A' for Active; 'I' for Inactive)
REMARK    1  A    between atoms: C_1  and  C_2
REMARK    2  A    between atoms: C_2  and  C_12
REMARK    3  A    between atoms: C_3  and  C_4
REMARK    4  A    between atoms: C_4  and  N_5
REMARK    5  A    between atoms: C_16  and  O_17
REMARK    6  A    between atoms: O_17  and  C_18
REMARK    7  A    between atoms: C_18  and  C_19
REMARK                            x       y       z     vdW  Elec       q    Type
REMARK                         _______ _______ _______ _____ _____    ______ ____
ROOT
ATOM      1  C   UNL     1      22.896  -0.308  53.691  0.00  0.00    +0.000 A 
ATOM      2  C   UNL     1      21.767  -0.890  54.269  0.00  0.00    +0.000 A 
ATOM      3  C   UNL     1      20.493  -0.440  53.927  0.00  0.00    +0.000 A 
ATOM      4  C   UNL     1      20.338   0.592  52.997  0.00  0.00    +0.000 A 
ATOM      5  C   UNL     1      21.453   1.168  52.387  0.00  0.00    +0.000 A 
ATOM      6  C   UNL     1      22.730   0.713  52.741  0.00  0.00    +0.000 A 
ENDROOT
BRANCH   1   8
ATOM      7  C   UNL     1      24.363  -1.162  55.537  0.00  0.00    +0.000 C 
ATOM      8  C   UNL     1      24.233  -0.757  54.099  0.00  0.00    +0.000 C 
ATOM      9  C   UNL     1      25.235  -0.724  53.193  0.00  0.00    +0.000 C 
BRANCH   9  10
ATOM     10  C   UNL     1      26.677  -1.105  53.422  0.00  0.00    +0.000 C 
BRANCH  10  11
ATOM     11  N   UNL     1      27.512  -0.094  52.788  0.00  0.00    +0.000 N 
ATOM     12  O   UNL     1      26.777   0.729  51.826  0.00  0.00    +0.000 OA
ATOM     13  C   UNL     1      27.211   2.054  51.961  0.00  0.00    +0.000 A 
ATOM     14  O   UNL     1      26.758   3.007  51.386  0.00  0.00    +0.000 OA
ATOM     15  N   UNL     1      28.178   2.029  52.925  0.00  0.00    +0.000 N 
ATOM     16  C   UNL     1      28.145   0.877  53.551  0.00  0.00    +0.000 A 
ATOM     17  O   UNL     1      28.580   0.650  54.610  0.00  0.00    +0.000 OA
ATOM     18  H   UNL     1      28.803   2.764  53.121  0.00  0.00    +0.000 HD
ENDBRANCH  10  11
ENDBRANCH   9  10
ENDBRANCH   1   8
BRANCH   5  19
ATOM     19  O   UNL     1      21.405   2.113  51.401  0.00  0.00    +0.000 OA
BRANCH  19  20
ATOM     20  C   UNL     1      21.699   3.457  51.786  0.00  0.00    +0.000 C 
BRANCH  20  21
ATOM     21  C   UNL     1      22.869   4.059  51.045  0.00  0.00    +0.000 A 
ATOM     22  C   UNL     1      23.180   3.606  49.749  0.00  0.00    +0.000 A 
ATOM     23  C   UNL     1      24.323   4.068  49.102  0.00  0.00    +0.000 A 
ATOM     24  C   UNL     1      25.029   5.165  49.633  0.00  0.00    +0.000 A 
ATOM     25  C   UNL     1      26.110   5.755  48.975  0.00  0.00    +0.000 A 
ATOM     26 CL   UNL     1      27.542   4.768  48.608  0.00  0.00    +0.000 Cl
ATOM     27  C   UNL     1      26.241   7.137  48.976  0.00  0.00    +0.000 A 
ATOM     28  C   UNL     1      25.510   7.864  49.904  0.00  0.00    +0.000 A 
ATOM     29  C   UNL     1      24.788   7.184  50.899  0.00  0.00    +0.000 A 
ATOM     30  C   UNL     1      24.492   5.821  50.744  0.00  0.00    +0.000 A 
ATOM     31  C   UNL     1      23.569   5.158  51.561  0.00  0.00    +0.000 A 
ENDBRANCH  20  21
ENDBRANCH  19  20
ENDBRANCH   5  19
TORSDOF 6
ENDMDL
MODEL 4
REMARK VINA RESULT:    -9.301      3.768      6.300
REMARK INTER + INTRA:         -13.548
REMARK INTER:                 -11.789
REMARK INTRA:                  -1.759
REMARK UNBOUND:                -0.985
REMARK  Name = 
REMARK  7 active torsions:
REMARK  status: ('A' for Active; 'I' for Inactive)
REMARK    1  A    between atoms: C_1  and  C_2
REMARK    2  A    between atoms: C_2  and  C_12
REMARK    3  A    between atoms: C_3  and  C_4
REMARK    4  A    between atoms: C_4  and  N_5
REMARK    5  A    between atoms: C_16  and  O_17
REMARK    6  A    between atoms: O_17  and  C_18
REMARK    7  A    between atoms: C_18  and  C_19
REMARK                            x       y       z     vdW  Elec       q    Type
REMARK                         _______ _______ _______ _____ _____    ______ ____
ROOT
ATOM      1  C   UNL     1      21.689   0.097  53.504  0.00  0.00    +0.000 A 
ATOM      2  C   UNL     1      21.633  -0.595  54.714  0.00  0.00    +0.000 A 
ATOM      3  C   UNL     1      22.783  -1.176  55.245  0.00  0.00    +0.000 A 
ATOM      4  C   UNL     1      24.003  -1.062  54.572  0.00  0.00    +0.000 A 
ATOM      5  C   UNL     1      24.086  -0.351  53.375  0.00  0.00    +0.000 A 
ATOM      6  C   UNL     1      22.923   0.225  52.846  0.00  0.00    +0.000 A 
ENDROOT
BRANCH   1   8
ATOM      7  C   UNL     1      19.328  -0.310  52.762  0.00  0.00    +0.000 C 
ATOM      8  C   UNL     1      20.460   0.660  52.931  0.00  0.00    +0.000 C 
ATOM      9  C   UNL     1      20.451   1.958  52.556  0.00  0.00    +0.000 C 
BRANCH   9  10
ATOM     10  C   UNL     1      19.309   2.710  51.919  0.00  0.00    +0.000 C 
BRANCH  10  11
ATOM     11  N   UNL     1      19.592   2.830  50.496  0.00  0.00    +0.000 N 
ATOM     12  O   UNL     1      21.026   2.906  50.206  0.00  0.00    +0.000 OA
ATOM     13  C   UNL     1      21.281   2.147  49.057  0.00  0.00    +0.000 A 
ATOM     14  O   UNL     1      22.363   1.920  48.586  0.00  0.00    +0.000 OA
ATOM     15  N   UNL     1      20.067   1.666  48.655  0.00  0.00    +0.000 N 
ATOM     16  C   UNL     1      19.187   1.842  49.610  0.00  0.00    +0.000 A 
ATOM     17  O   UNL     1      18.178   1.268  49.739  0.00  0.00    +0.000 OA
ATOM     18  H   UNL     1      19.882   1.251  47.781  0.00  0.00    +0.000 HD
ENDBRANCH  10  11
ENDBRANCH   9  10
ENDBRANCH   1   8
BRANCH   5  19
ATOM     19  O   UNL     1      25.242  -0.104  52.690  0.00  0.00    +0.000 OA
BRANCH  19  20
ATOM     20  C   UNL     1      25.893   1.139  52.957  0.00  0.00    +0.000 C 
BRANCH  20  21
ATOM     21  C   UNL     1      25.546   2.231  51.972  0.00  0.00    +0.000 A 
ATOM     22  C   UNL     1      24.545   3.166  52.294  0.00  0.00    +0.000 A 
ATOM     23  C   UNL     1      24.135   4.103  51.351  0.00  0.00    +0.000 A 
ATOM     24  C   UNL     1      24.883   4.280  50.171  0.00  0.00    +0.000 A 
ATOM     25  C   UNL     1      24.600   5.281  49.240  0.00  0.00    +0.000 A 
ATOM     26 CL   UNL     1      23.005   5.306  48.456  0.00  0.00    +0.000 Cl
ATOM     27  C   UNL     1      25.643   5.976  48.643  0.00  0.00    +0.000 A 
ATOM     28  C   UNL     1      26.918   5.436  48.716  0.00  0.00    +0.000 A 
ATOM     29  C   UNL     1      27.092   4.147  49.252  0.00  0.00    +0.000 A 
ATOM     30  C   UNL     1      26.082   3.573  50.038  0.00  0.00    +0.000 A 
ATOM     31  C   UNL     1      26.295   2.419  50.803  0.00  0.00    +0.000 A 
ENDBRANCH  20  21
ENDBRANCH  19  20
ENDBRANCH   5  19
TORSDOF 6
ENDMDL
MODEL 5
REMARK VINA RESULT:    -9.241      4.566      8.802
REMARK INTER + INTRA:         -13.467
REMARK INTER:                 -11.888
REMARK INTRA:                  -1.579
REMARK UNBOUND:                -0.985
REMARK  Name = 
REMARK  7 active torsions:
REMARK  status: ('A' for Active; 'I' for Inactive)
REMARK    1  A    between atoms: C_1  and  C_2
REMARK    2  A    between atoms: C_2  and  C_12
REMARK    3  A    between atoms: C_3  and  C_4
REMARK    4  A    between atoms: C_4  and  N_5
REMARK    5  A    between atoms: C_16  and  O_17
REMARK    6  A    between atoms: O_17  and  C_18
REMARK    7  A    between atoms: C_18  and  C_19
REMARK                            x       y       z     vdW  Elec       q    Type
REMARK                         _______ _______ _______ _____ _____    ______ ____
ROOT
ATOM      1  C   UNL     1      26.276   2.072  51.569  0.00  0.00    +0.000 A 
ATOM      2  C   UNL     1      27.528   2.291  52.146  0.00  0.00    +0.000 A 
ATOM      3  C   UNL     1      27.979   1.466  53.175  0.00  0.00    +0.000 A 
ATOM      4  C   UNL     1      27.184   0.410  53.630  0.00  0.00    +0.000 A 
ATOM      5  C   UNL     1      25.943   0.157  53.047  0.00  0.00    +0.000 A 
ATOM      6  C   UNL     1      25.494   0.995  52.017  0.00  0.00    +0.000 A 
ENDROOT
BRANCH   1   8
ATOM      7  C   UNL     1      26.854   3.760  49.806  0.00  0.00    +0.000 C 
ATOM      8  C   UNL     1      25.791   2.980  50.521  0.00  0.00    +0.000 C 
ATOM      9  C   UNL     1      24.460   3.086  50.317  0.00  0.00    +0.000 C 
BRANCH   9  10
ATOM     10  C   UNL     1      23.764   3.982  49.323  0.00  0.00    +0.000 C 
BRANCH  10  11
ATOM     11  N   UNL     1      22.696   4.682  50.023  0.00  0.00    +0.000 N 
ATOM     12  O   UNL     1      21.665   3.777  50.538  0.00  0.00    +0.000 OA
ATOM     13  C   UNL     1      21.280   4.230  51.806  0.00  0.00    +0.000 A 
ATOM     14  O   UNL     1      20.517   3.676  52.551  0.00  0.00    +0.000 OA
ATOM     15  N   UNL     1      22.010   5.362  52.033  0.00  0.00    +0.000 N 
ATOM     16  C   UNL     1      22.972   5.448  51.147  0.00  0.00    +0.000 A 
ATOM     17  O   UNL     1      23.952   6.076  51.245  0.00  0.00    +0.000 OA
ATOM     18  H   UNL     1      21.840   6.013  52.751  0.00  0.00    +0.000 HD
ENDBRANCH  10  11
ENDBRANCH   9  10
ENDBRANCH   1   8
BRANCH   5  19
ATOM     19  O   UNL     1      25.134  -0.901  53.354  0.00  0.00    +0.000 OA
BRANCH  19  20
ATOM     20  C   UNL     1      24.169  -0.693  54.386  0.00  0.00    +0.000 C 
BRANCH  20  21
ATOM     21  C   UNL     1      22.752  -0.568  53.876  0.00  0.00    +0.000 A 
ATOM     22  C   UNL     1      21.707  -0.308  54.782  0.00  0.00    +0.000 A 
ATOM     23  C   UNL     1      20.386  -0.307  54.344  0.00  0.00    +0.000 A 
ATOM     24  C   UNL     1      20.109  -0.318  52.963  0.00  0.00    +0.000 A 
ATOM     25  C   UNL     1      18.816  -0.196  52.452  0.00  0.00    +0.000 A 
ATOM     26 CL   UNL     1      17.593  -1.407  52.899  0.00  0.00    +0.000 Cl
ATOM     27  C   UNL     1      18.594   0.584  51.326  0.00  0.00    +0.000 A 
ATOM     28  C   UNL     1      19.686   0.932  50.544  0.00  0.00    +0.000 A 
ATOM     29  C   UNL     1      20.943   0.368  50.824  0.00  0.00    +0.000 A 
ATOM     30  C   UNL     1      21.184  -0.223  52.073  0.00  0.00    +0.000 A 
ATOM     31  C   UNL     1      22.471  -0.565  52.504  0.00  0.00    +0.000 A 
ENDBRANCH  20  21
ENDBRANCH  19  20
ENDBRANCH   5  19
TORSDOF 6
ENDMDL
MODEL 6
REMARK VINA RESULT:    -9.218      4.314      8.076
REMARK INTER + INTRA:         -13.437
REMARK INTER:                 -12.306
REMARK INTRA:                  -1.130
REMARK UNBOUND:                -0.985
REMARK  Name = 
REMARK  7 active torsions:
REMARK  status: ('A' for Active; 'I' for Inactive)
REMARK    1  A    between atoms: C_1  and  C_2
REMARK    2  A    between atoms: C_2  and  C_12
REMARK    3  A    between atoms: C_3  and  C_4
REMARK    4  A    between atoms: C_4  and  N_5
REMARK    5  A    between atoms: C_16  and  O_17
REMARK    6  A    between atoms: O_17  and  C_18
REMARK    7  A    between atoms: C_18  and  C_19
REMARK                            x       y       z     vdW  Elec       q    Type
REMARK                         _______ _______ _______ _____ _____    ______ ____
ROOT
ATOM      1  C   UNL     1      25.744   6.198  49.538  0.00  0.00    +0.000 A 
ATOM      2  C   UNL     1      25.828   7.560  49.831  0.00  0.00    +0.000 A 
ATOM      3  C   UNL     1      24.700   8.255  50.264  0.00  0.00    +0.000 A 
ATOM      4  C   UNL     1      23.479   7.591  50.415  0.00  0.00    +0.000 A 
ATOM      5  C   UNL     1      23.381   6.224  50.155  0.00  0.00    +0.000 A 
ATOM      6  C   UNL     1      24.519   5.534  49.715  0.00  0.00    +0.000 A 
ENDROOT
BRANCH   1   8
ATOM      7  C   UNL     1      26.881   3.995  49.159  0.00  0.00    +0.000 C 
ATOM      8  C   UNL     1      26.927   5.489  49.034  0.00  0.00    +0.000 C 
ATOM      9  C   UNL     1      27.965   6.211  48.559  0.00  0.00    +0.000 C 
BRANCH   9  10
ATOM     10  C   UNL     1      29.275   5.678  48.033  0.00  0.00    +0.000 C 
BRANCH  10  11
ATOM     11  N   UNL     1      30.274   6.728  48.177  0.00  0.00    +0.000 N 
ATOM     12  O   UNL     1      29.682   8.063  48.296  0.00  0.00    +0.000 OA
ATOM     13  C   UNL     1      30.410   8.779  49.255  0.00  0.00    +0.000 A 
ATOM     14  O   UNL     1      30.146   9.878  49.664  0.00  0.00    +0.000 OA
ATOM     15  N   UNL     1      31.404   7.940  49.668  0.00  0.00    +0.000 N 
ATOM     16  C   UNL     1      31.153   6.723  49.250  0.00  0.00    +0.000 A 
ATOM     17  O   UNL     1      31.592   5.734  49.689  0.00  0.00    +0.000 OA
ATOM     18  H   UNL     1      32.189   8.207  50.199  0.00  0.00    +0.000 HD
ENDBRANCH  10  11
ENDBRANCH   9  10
ENDBRANCH   1   8
BRANCH   5  19
ATOM     19  O   UNL     1      22.262   5.467  50.360  0.00  0.00    +0.000 OA
BRANCH  19  20
ATOM     20  C   UNL     1      21.990   5.076  51.707  0.00  0.00    +0.000 C 
BRANCH  20  21
ATOM     21  C   UNL     1      22.700   3.811  52.128  0.00  0.00    +0.000 A 
ATOM     22  C   UNL     1      23.905   3.895  52.850  0.00  0.00    +0.000 A 
ATOM     23  C   UNL     1      24.628   2.742  53.141  0.00  0.00    +0.000 A 
ATOM     24  C   UNL     1      24.039   1.479  52.936  0.00  0.00    +0.000 A 
ATOM     25  C   UNL     1      24.658   0.288  53.318  0.00  0.00    +0.000 A 
ATOM     26 CL   UNL     1      26.240  -0.126  52.621  0.00  0.00    +0.000 Cl
ATOM     27  C   UNL     1      23.901  -0.725  53.890  0.00  0.00    +0.000 A 
ATOM     28  C   UNL     1      22.522  -0.672  53.750  0.00  0.00    +0.000 A 
ATOM     29  C   UNL     1      21.951   0.307  52.917  0.00  0.00    +0.000 A 
ATOM     30  C   UNL     1      22.699   1.432  52.542  0.00  0.00    +0.000 A 
ATOM     31  C   UNL     1      22.114   2.552  51.938  0.00  0.00    +0.000 A 
ENDBRANCH  20  21
ENDBRANCH  19  20
ENDBRANCH   5  19
TORSDOF 6
ENDMDL
MODEL 7
REMARK VINA RESULT:    -9.118      3.148      4.735
REMARK INTER + INTRA:         -13.301
REMARK INTER:                 -12.163
REMARK INTRA:                  -1.138
REMARK UNBOUND:                -0.985
REMARK  Name = 
REMARK  7 active torsions:
REMARK  status: ('A' for Active; 'I' for Inactive)
REMARK    1  A    between atoms: C_1  and  C_2
REMARK    2  A    between atoms: C_2  and  C_12
REMARK    3  A    between atoms: C_3  and  C_4
REMARK    4  A    between atoms: C_4  and  N_5
REMARK    5  A    between atoms: C_16  and  O_17
REMARK    6  A    between atoms: O_17  and  C_18
REMARK    7  A    between atoms: C_18  and  C_19
REMARK                            x       y       z     vdW  Elec       q    Type
REMARK                         _______ _______ _______ _____ _____    ______ ____
ROOT
ATOM      1  C   UNL     1      23.023   0.068  53.222  0.00  0.00    +0.000 A 
ATOM      2  C   UNL     1      22.875  -0.694  54.382  0.00  0.00    +0.000 A 
ATOM      3  C   UNL     1      21.626  -1.207  54.729  0.00  0.00    +0.000 A 
ATOM      4  C   UNL     1      20.517  -0.969  53.913  0.00  0.00    +0.000 A 
ATOM      5  C   UNL     1      20.650  -0.235  52.735  0.00  0.00    +0.000 A 
ATOM      6  C   UNL     1      21.907   0.283  52.397  0.00  0.00    +0.000 A 
ENDROOT
BRANCH   1   8
ATOM      7  C   UNL     1      24.408   2.142  52.958  0.00  0.00    +0.000 C 
ATOM      8  C   UNL     1      24.333   0.645  52.895  0.00  0.00    +0.000 C 
ATOM      9  C   UNL     1      25.334  -0.181  52.520  0.00  0.00    +0.000 C 
BRANCH   9  10
ATOM     10  C   UNL     1      26.731   0.214  52.112  0.00  0.00    +0.000 C 
BRANCH  10  11
ATOM     11  N   UNL     1      27.559   0.232  53.310  0.00  0.00    +0.000 N 
ATOM     12  O   UNL     1      28.433  -0.939  53.415  0.00  0.00    +0.000 OA
ATOM     13  C   UNL     1      29.676  -0.514  53.899  0.00  0.00    +0.000 A 
ATOM     14  O   UNL     1      30.655  -1.200  54.025  0.00  0.00    +0.000 OA
ATOM     15  N   UNL     1      29.553   0.830  54.107  0.00  0.00    +0.000 N 
ATOM     16  C   UNL     1      28.459   1.264  53.531  0.00  0.00    +0.000 A 
ATOM     17  O   UNL     1      28.225   2.367  53.227  0.00  0.00    +0.000 OA
ATOM     18  H   UNL     1      30.188   1.387  54.612  0.00  0.00    +0.000 HD
ENDBRANCH  10  11
ENDBRANCH   9  10
ENDBRANCH   1   8
BRANCH   5  19
ATOM     19  O   UNL     1      19.651  -0.026  51.825  0.00  0.00    +0.000 OA
BRANCH  19  20
ATOM     20  C   UNL     1      19.132   1.302  51.735  0.00  0.00    +0.000 C 
BRANCH  20  21
ATOM     21  C   UNL     1      20.181   2.345  51.430  0.00  0.00    +0.000 A 
ATOM     22  C   UNL     1      20.527   3.293  52.411  0.00  0.00    +0.000 A 
ATOM     23  C   UNL     1      21.405   4.329  52.103  0.00  0.00    +0.000 A 
ATOM     24  C   UNL     1      22.135   4.291  50.900  0.00  0.00    +0.000 A 
ATOM     25  C   UNL     1      23.118   5.231  50.584  0.00  0.00    +0.000 A 
ATOM     26 CL   UNL     1      22.669   6.947  50.477  0.00  0.00    +0.000 Cl
ATOM     27  C   UNL     1      24.293   4.814  49.975  0.00  0.00    +0.000 A 
ATOM     28  C   UNL     1      24.318   3.558  49.387  0.00  0.00    +0.000 A 
ATOM     29  C   UNL     1      23.127   2.816  49.293  0.00  0.00    +0.000 A 
ATOM     30  C   UNL     1      22.028   3.150  50.099  0.00  0.00    +0.000 A 
ATOM     31  C   UNL     1      20.920   2.305  50.240  0.00  0.00    +0.000 A 
ENDBRANCH  20  21
ENDBRANCH  19  20
ENDBRANCH   5  19
TORSDOF 6
ENDMDL
MODEL 8
REMARK VINA RESULT:    -9.081      4.572      8.743
REMARK INTER + INTRA:         -13.252
REMARK INTER:                 -12.606
REMARK INTRA:                  -0.646
REMARK UNBOUND:                -0.985
REMARK  Name = 
REMARK  7 active torsions:
REMARK  status: ('A' for Active; 'I' for Inactive)
REMARK    1  A    between atoms: C_1  and  C_2
REMARK    2  A    between atoms: C_2  and  C_12
REMARK    3  A    between atoms: C_3  and  C_4
REMARK    4  A    between atoms: C_4  and  N_5
REMARK    5  A    between atoms: C_16  and  O_17
REMARK    6  A    between atoms: O_17  and  C_18
REMARK    7  A    between atoms: C_18  and  C_19
REMARK                            x       y       z     vdW  Elec       q    Type
REMARK                         _______ _______ _______ _____ _____    ______ ____
ROOT
ATOM      1  C   UNL     1      27.136   6.412  48.740  0.00  0.00    +0.000 A 
ATOM      2  C   UNL     1      26.465   7.355  49.520  0.00  0.00    +0.000 A 
ATOM      3  C   UNL     1      25.331   6.989  50.242  0.00  0.00    +0.000 A 
ATOM      4  C   UNL     1      24.862   5.673  50.196  0.00  0.00    +0.000 A 
ATOM      5  C   UNL     1      25.535   4.709  49.445  0.00  0.00    +0.000 A 
ATOM      6  C   UNL     1      26.671   5.087  48.717  0.00  0.00    +0.000 A 
ENDROOT
BRANCH   1   8
ATOM      7  C   UNL     1      28.045   7.924  46.957  0.00  0.00    +0.000 C 
ATOM      8  C   UNL     1      28.299   6.823  47.944  0.00  0.00    +0.000 C 
ATOM      9  C   UNL     1      29.468   6.166  48.111  0.00  0.00    +0.000 C 
BRANCH   9  10
ATOM     10  C   UNL     1      30.759   6.409  47.369  0.00  0.00    +0.000 C 
BRANCH  10  11
ATOM     11  N   UNL     1      31.543   7.364  48.140  0.00  0.00    +0.000 N 
ATOM     12  O   UNL     1      30.981   8.717  48.108  0.00  0.00    +0.000 OA
ATOM     13  C   UNL     1      31.109   9.273  49.387  0.00  0.00    +0.000 A 
ATOM     14  O   UNL     1      30.676  10.337  49.740  0.00  0.00    +0.000 OA
ATOM     15  N   UNL     1      31.741   8.326  50.141  0.00  0.00    +0.000 N 
ATOM     16  C   UNL     1      31.739   7.182  49.501  0.00  0.00    +0.000 A 
ATOM     17  O   UNL     1      31.881   6.123  49.972  0.00  0.00    +0.000 OA
ATOM     18  H   UNL     1      32.137   8.479  51.029  0.00  0.00    +0.000 HD
ENDBRANCH  10  11
ENDBRANCH   9  10
ENDBRANCH   1   8
BRANCH   5  19
ATOM     19  O   UNL     1      25.214   3.381  49.408  0.00  0.00    +0.000 OA
BRANCH  19  20
ATOM     20  C   UNL     1      23.823   3.056  49.417  0.00  0.00    +0.000 C 
BRANCH  20  21
ATOM     21  C   UNL     1      23.409   2.190  50.582  0.00  0.00    +0.000 A 
ATOM     22  C   UNL     1      22.242   1.408  50.489  0.00  0.00    +0.000 A 
ATOM     23  C   UNL     1      21.786   0.697  51.595  0.00  0.00    +0.000 A 
ATOM     24  C   UNL     1      22.615   0.559  52.725  0.00  0.00    +0.000 A 
ATOM     25  C   UNL     1      22.272  -0.239  53.819  0.00  0.00    +0.000 A 
ATOM     26 CL   UNL     1      20.784   0.125  54.720  0.00  0.00    +0.000 Cl
ATOM     27  C   UNL     1      23.245  -1.015  54.432  0.00  0.00    +0.000 A 
ATOM     28  C   UNL     1      24.576  -0.722  54.176  0.00  0.00    +0.000 A 
ATOM     29  C   UNL     1      24.899   0.430  53.436  0.00  0.00    +0.000 A 
ATOM     30  C   UNL     1      23.919   1.056  52.652  0.00  0.00    +0.000 A 
ATOM     31  C   UNL     1      24.234   2.037  51.704  0.00  0.00    +0.000 A 
ENDBRANCH  20  21
ENDBRANCH  19  20
ENDBRANCH   5  19
TORSDOF 6
ENDMDL
MODEL 9
REMARK VINA RESULT:    -9.034      3.373      6.569
REMARK INTER + INTRA:         -13.188
REMARK INTER:                 -11.594
REMARK INTRA:                  -1.594
REMARK UNBOUND:                -0.985
REMARK  Name = 
REMARK  7 active torsions:
REMARK  status: ('A' for Active; 'I' for Inactive)
REMARK    1  A    between atoms: C_1  and  C_2
REMARK    2  A    between atoms: C_2  and  C_12
REMARK    3  A    between atoms: C_3  and  C_4
REMARK    4  A    between atoms: C_4  and  N_5
REMARK    5  A    between atoms: C_16  and  O_17
REMARK    6  A    between atoms: O_17  and  C_18
REMARK    7  A    between atoms: C_18  and  C_19
REMARK                            x       y       z     vdW  Elec       q    Type
REMARK                         _______ _______ _______ _____ _____    ______ ____
ROOT
ATOM      1  C   UNL     1      25.415   2.522  51.091  0.00  0.00    +0.000 A 
ATOM      2  C   UNL     1      26.470   2.869  50.246  0.00  0.00    +0.000 A 
ATOM      3  C   UNL     1      26.428   4.061  49.524  0.00  0.00    +0.000 A 
ATOM      4  C   UNL     1      25.332   4.919  49.647  0.00  0.00    +0.000 A 
ATOM      5  C   UNL     1      24.280   4.604  50.508  0.00  0.00    +0.000 A 
ATOM      6  C   UNL     1      24.329   3.401  51.226  0.00  0.00    +0.000 A 
ENDROOT
BRANCH   1   8
ATOM      7  C   UNL     1      24.204   0.897  52.568  0.00  0.00    +0.000 C 
ATOM      8  C   UNL     1      25.449   1.240  51.806  0.00  0.00    +0.000 C 
ATOM      9  C   UNL     1      26.584   0.507  51.775  0.00  0.00    +0.000 C 
BRANCH   9  10
ATOM     10  C   UNL     1      26.833  -0.809  52.469  0.00  0.00    +0.000 C 
BRANCH  10  11
ATOM     11  N   UNL     1      27.715  -0.558  53.600  0.00  0.00    +0.000 N 
ATOM     12  O   UNL     1      28.788   0.388  53.285  0.00  0.00    +0.000 OA
ATOM     13  C   UNL     1      28.966   1.232  54.389  0.00  0.00    +0.000 A 
ATOM     14  O   UNL     1      29.705   2.178  54.441  0.00  0.00    +0.000 OA
ATOM     15  N   UNL     1      28.075   0.802  55.330  0.00  0.00    +0.000 N 
ATOM     16  C   UNL     1      27.216  -0.021  54.778  0.00  0.00    +0.000 A 
ATOM     17  O   UNL     1      26.159  -0.299  55.190  0.00  0.00    +0.000 OA
ATOM     18  H   UNL     1      28.077   1.069  56.278  0.00  0.00    +0.000 HD
ENDBRANCH  10  11
ENDBRANCH   9  10
ENDBRANCH   1   8
BRANCH   5  19
ATOM     19  O   UNL     1      23.213   5.416  50.770  0.00  0.00    +0.000 OA
BRANCH  19  20
ATOM     20  C   UNL     1      22.038   5.205  49.985  0.00  0.00    +0.000 C 
BRANCH  20  21
ATOM     21  C   UNL     1      21.306   3.926  50.318  0.00  0.00    +0.000 A 
ATOM     22  C   UNL     1      21.140   2.940  49.328  0.00  0.00    +0.000 A 
ATOM     23  C   UNL     1      20.368   1.812  49.587  0.00  0.00    +0.000 A 
ATOM     24  C   UNL     1      19.961   1.533  50.906  0.00  0.00    +0.000 A 
ATOM     25  C   UNL     1      19.290   0.360  51.256  0.00  0.00    +0.000 A 
ATOM     26 CL   UNL     1      17.724   0.000  50.496  0.00  0.00    +0.000 Cl
ATOM     27  C   UNL     1      19.617  -0.289  52.438  0.00  0.00    +0.000 A 
ATOM     28  C   UNL     1      20.336   0.412  53.395  0.00  0.00    +0.000 A 
ATOM     29  C   UNL     1      20.577   1.785  53.207  0.00  0.00    +0.000 A 
ATOM     30  C   UNL     1      20.441   2.352  51.932  0.00  0.00    +0.000 A 
ATOM     31  C   UNL     1      20.910   3.637  51.631  0.00  0.00    +0.000 A 
ENDBRANCH  20  21
ENDBRANCH  19  20
ENDBRANCH   5  19
TORSDOF 6
ENDMDL
