MODEL 1
REMARK VINA RESULT:    -8.218      0.000      0.000
REMARK INTER + INTRA:         -10.982
REMARK INTER:                 -10.380
REMARK INTRA:                  -0.602
REMARK UNBOUND:                -0.602
REMARK  Name = 
REMARK  7 active torsions:
REMARK  status: ('A' for Active; 'I' for Inactive)
REMARK    1  A    between atoms: C_1  and  O_2
REMARK    2  A    between atoms: O_2  and  C_3
REMARK    3  A    between atoms: C_7  and  N_8
REMARK    4  A    between atoms: N_14  and  C_15
REMARK    5  A    between atoms: C_24  and  N_25
REMARK    6  A    between atoms: C_28  and  O_29
REMARK    7  A    between atoms: O_29  and  C_30
REMARK                            x       y       z     vdW  Elec       q    Type
REMARK                         _______ _______ _______ _____ _____    ______ ____
ROOT
ATOM      1  C   UNL     1      15.812   2.053  50.322  0.00  0.00    +0.000 A 
ATOM      2  C   UNL     1      17.203   1.896  50.329  0.00  0.00    +0.000 A 
ATOM      3  C   UNL     1      17.844   1.015  51.186  0.00  0.00    +0.000 A 
ATOM      4  N   UNL     1      19.184   0.936  51.119  0.00  0.00    +0.000 NA
ATOM      5  C   UNL     1      19.848   0.089  51.930  0.00  0.00    +0.000 A 
ATOM      6  C   UNL     1      19.145  -0.712  52.825  0.00  0.00    +0.000 A 
ATOM      7  C   UNL     1      17.750  -0.688  52.875  0.00  0.00    +0.000 A 
ATOM      8  C   UNL     1      17.067   0.243  52.068  0.00  0.00    +0.000 A 
ATOM      9  C   UNL     1      15.663   0.439  52.101  0.00  0.00    +0.000 A 
ATOM     10  C   UNL     1      15.035   1.354  51.253  0.00  0.00    +0.000 A 
ENDROOT
BRANCH   5  11
ATOM     11  N   UNL     1      21.221   0.047  51.859  0.00  0.00    +0.000 N 
ATOM     12  C   UNL     1      21.989  -0.723  52.845  0.00  0.00    +0.000 C 
ATOM     13  C   UNL     1      22.978   0.178  53.609  0.00  0.00    +0.000 C 
ATOM     14  N   UNL     1      23.827   0.928  52.669  0.00  0.00    +0.000 N 
ATOM     15  C   UNL     1      25.202   0.872  52.489  0.00  0.00    +0.000 C 
ATOM     16  O   UNL     1      25.721   1.481  51.555  0.00  0.00    +0.000 OA
ATOM     17  N   UNL     1      25.908   0.113  53.396  0.00  0.00    +0.000 N 
ATOM     18  C   UNL     1      23.042   1.744  51.730  0.00  0.00    +0.000 C 
ATOM     19  C   UNL     1      21.987   0.920  50.959  0.00  0.00    +0.000 C 
ATOM     20  H   UNL     1      25.390  -0.292  54.129  0.00  0.00    +0.000 HD
BRANCH  17  21
ATOM     21  C   UNL     1      27.302  -0.148  53.386  0.00  0.00    +0.000 A 
ATOM     22  C   UNL     1      27.865  -1.379  53.036  0.00  0.00    +0.000 A 
ATOM     23  C   UNL     1      29.237  -1.607  53.179  0.00  0.00    +0.000 A 
ATOM     24  C   UNL     1      30.070  -0.598  53.650  0.00  0.00    +0.000 A 
ATOM     25  C   UNL     1      29.535   0.656  53.934  0.00  0.00    +0.000 A 
ATOM     26  C   UNL     1      28.160   0.882  53.795  0.00  0.00    +0.000 A 
ENDBRANCH  17  21
ENDBRANCH   5  11
BRANCH   7  27
ATOM     27  N   UNL     1      17.104  -1.437  53.880  0.00  0.00    +0.000 N 
ATOM     28  H   UNL     1      17.239  -1.209  54.828  0.00  0.00    +0.000 HD
ATOM     29  H   UNL     1      16.518  -2.190  53.634  0.00  0.00    +0.000 HD
ENDBRANCH   7  27
BRANCH   1  31
ATOM     30  C   UNL     1      15.269   4.292  49.795  0.00  0.00    +0.000 C 
ATOM     31  O   UNL     1      15.159   2.909  49.467  0.00  0.00    +0.000 OA
ENDBRANCH   1  31
BRANCH  10  32
ATOM     32  O   UNL     1      13.680   1.572  51.239  0.00  0.00    +0.000 OA
ATOM     33  C   UNL     1      13.153   2.308  52.339  0.00  0.00    +0.000 C 
ENDBRANCH  10  32
TORSDOF 5
ENDMDL
MODEL 2
REMARK VINA RESULT:    -7.960      4.061      9.372
REMARK INTER + INTRA:         -10.656
REMARK INTER:                 -10.525
REMARK INTRA:                  -0.131
REMARK UNBOUND:                -0.602
REMARK  Name = 
REMARK  7 active torsions:
REMARK  status: ('A' for Active; 'I' for Inactive)
REMARK    1  A    between atoms: C_1  and  O_2
REMARK    2  A    between atoms: O_2  and  C_3
REMARK    3  A    between atoms: C_7  and  N_8
REMARK    4  A    between atoms: N_14  and  C_15
REMARK    5  A    between atoms: C_24  and  N_25
REMARK    6  A    between atoms: C_28  and  O_29
REMARK    7  A    between atoms: O_29  and  C_30
REMARK                            x       y       z     vdW  Elec       q    Type
REMARK                         _______ _______ _______ _____ _____    ______ ____
ROOT
ATOM      1  C   UNL     1      24.351   6.100  48.381  0.00  0.00    +0.000 A 
ATOM      2  C   UNL     1      23.548   5.070  48.885  0.00  0.00    +0.000 A 
ATOM      3  C   UNL     1      24.048   4.086  49.724  0.00  0.00    +0.000 A 
ATOM      4  N   UNL     1      23.199   3.137  50.156  0.00  0.00    +0.000 NA
ATOM      5  C   UNL     1      23.640   2.164  50.976  0.00  0.00    +0.000 A 
ATOM      6  C   UNL     1      24.971   2.149  51.386  0.00  0.00    +0.000 A 
ATOM      7  C   UNL     1      25.858   3.154  50.995  0.00  0.00    +0.000 A 
ATOM      8  C   UNL     1      25.405   4.133  50.089  0.00  0.00    +0.000 A 
ATOM      9  C   UNL     1      26.233   5.144  49.536  0.00  0.00    +0.000 A 
ATOM     10  C   UNL     1      25.721   6.110  48.668  0.00  0.00    +0.000 A 
ENDROOT
BRANCH   5  11
ATOM     11  N   UNL     1      22.757   1.192  51.381  0.00  0.00    +0.000 N 
ATOM     12  C   UNL     1      21.416   1.116  50.786  0.00  0.00    +0.000 C 
ATOM     13  C   UNL     1      20.321   1.258  51.861  0.00  0.00    +0.000 C 
ATOM     14  N   UNL     1      20.531   0.285  52.945  0.00  0.00    +0.000 N 
ATOM     15  C   UNL     1      19.722  -0.768  53.351  0.00  0.00    +0.000 C 
ATOM     16  O   UNL     1      20.131  -1.560  54.197  0.00  0.00    +0.000 OA
ATOM     17  N   UNL     1      18.482  -0.852  52.756  0.00  0.00    +0.000 N 
ATOM     18  C   UNL     1      21.855   0.418  53.572  0.00  0.00    +0.000 C 
ATOM     19  C   UNL     1      23.010   0.339  52.551  0.00  0.00    +0.000 C 
ATOM     20  H   UNL     1      18.246  -0.134  52.125  0.00  0.00    +0.000 HD
BRANCH  17  21
ATOM     21  C   UNL     1      17.509  -1.865  52.955  0.00  0.00    +0.000 A 
ATOM     22  C   UNL     1      17.751  -3.058  53.643  0.00  0.00    +0.000 A 
ATOM     23  C   UNL     1      16.787  -4.070  53.684  0.00  0.00    +0.000 A 
ATOM     24  C   UNL     1      15.558  -3.893  53.059  0.00  0.00    +0.000 A 
ATOM     25  C   UNL     1      15.274  -2.682  52.432  0.00  0.00    +0.000 A 
ATOM     26  C   UNL     1      16.242  -1.671  52.388  0.00  0.00    +0.000 A 
ENDBRANCH  17  21
ENDBRANCH   5  11
BRANCH   7  27
ATOM     27  N   UNL     1      27.217   3.021  51.350  0.00  0.00    +0.000 N 
ATOM     28  H   UNL     1      27.907   2.989  50.649  0.00  0.00    +0.000 HD
ATOM     29  H   UNL     1      27.475   2.958  52.298  0.00  0.00    +0.000 HD
ENDBRANCH   7  27
BRANCH   1  31
ATOM     30  C   UNL     1      22.875   7.930  48.148  0.00  0.00    +0.000 C 
ATOM     31  O   UNL     1      23.868   7.094  47.562  0.00  0.00    +0.000 OA
ENDBRANCH   1  31
BRANCH  10  32
ATOM     32  O   UNL     1      26.478   7.113  48.116  0.00  0.00    +0.000 OA
ATOM     33  C   UNL     1      27.882   6.881  48.064  0.00  0.00    +0.000 C 
ENDBRANCH  10  32
TORSDOF 5
ENDMDL
MODEL 3
REMARK VINA RESULT:    -7.935      6.185     11.234
REMARK INTER + INTRA:         -10.624
REMARK INTER:                 -10.214
REMARK INTRA:                  -0.410
REMARK UNBOUND:                -0.602
REMARK  Name = 
REMARK  7 active torsions:
REMARK  status: ('A' for Active; 'I' for Inactive)
REMARK    1  A    between atoms: C_1  and  O_2
REMARK    2  A    between atoms: O_2  and  C_3
REMARK    3  A    between atoms: C_7  and  N_8
REMARK    4  A    between atoms: N_14  and  C_15
REMARK    5  A    between atoms: C_24  and  N_25
REMARK    6  A    between atoms: C_28  and  O_29
REMARK    7  A    between atoms: O_29  and  C_30
REMARK                            x       y       z     vdW  Elec       q    Type
REMARK                         _______ _______ _______ _____ _____    ______ ____
ROOT
ATOM      1  C   UNL     1      30.435   6.713  47.490  0.00  0.00    +0.000 A 
ATOM      2  C   UNL     1      29.619   5.708  48.024  0.00  0.00    +0.000 A 
ATOM      3  C   UNL     1      28.304   5.941  48.393  0.00  0.00    +0.000 A 
ATOM      4  N   UNL     1      27.601   4.913  48.900  0.00  0.00    +0.000 NA
ATOM      5  C   UNL     1      26.318   5.093  49.267  0.00  0.00    +0.000 A 
ATOM      6  C   UNL     1      25.717   6.339  49.110  0.00  0.00    +0.000 A 
ATOM      7  C   UNL     1      26.409   7.407  48.537  0.00  0.00    +0.000 A 
ATOM      8  C   UNL     1      27.768   7.229  48.211  0.00  0.00    +0.000 A 
ATOM      9  C   UNL     1      28.608   8.261  47.721  0.00  0.00    +0.000 A 
ATOM     10  C   UNL     1      29.940   8.017  47.383  0.00  0.00    +0.000 A 
ENDROOT
BRANCH   5  11
ATOM     11  N   UNL     1      25.630   4.031  49.806  0.00  0.00    +0.000 N 
ATOM     12  C   UNL     1      24.271   4.219  50.329  0.00  0.00    +0.000 C 
ATOM     13  C   UNL     1      24.190   3.836  51.819  0.00  0.00    +0.000 C 
ATOM     14  N   UNL     1      24.711   2.476  52.033  0.00  0.00    +0.000 N 
ATOM     15  C   UNL     1      24.053   1.344  52.493  0.00  0.00    +0.000 C 
ATOM     16  O   UNL     1      24.627   0.257  52.479  0.00  0.00    +0.000 OA
ATOM     17  N   UNL     1      22.763   1.526  52.943  0.00  0.00    +0.000 N 
ATOM     18  C   UNL     1      26.096   2.325  51.561  0.00  0.00    +0.000 C 
ATOM     19  C   UNL     1      26.273   2.740  50.085  0.00  0.00    +0.000 C 
ATOM     20  H   UNL     1      22.425   2.450  52.949  0.00  0.00    +0.000 HD
BRANCH  17  21
ATOM     21  C   UNL     1      21.871   0.521  53.398  0.00  0.00    +0.000 A 
ATOM     22  C   UNL     1      22.212  -0.465  54.328  0.00  0.00    +0.000 A 
ATOM     23  C   UNL     1      21.326  -1.504  54.629  0.00  0.00    +0.000 A 
ATOM     24  C   UNL     1      20.075  -1.556  54.023  0.00  0.00    +0.000 A 
ATOM     25  C   UNL     1      19.693  -0.540  53.150  0.00  0.00    +0.000 A 
ATOM     26  C   UNL     1      20.583   0.497  52.846  0.00  0.00    +0.000 A 
ENDBRANCH  17  21
ENDBRANCH   5  11
BRANCH   7  27
ATOM     27  N   UNL     1      25.784   8.672  48.511  0.00  0.00    +0.000 N 
ATOM     28  H   UNL     1      26.249   9.458  48.878  0.00  0.00    +0.000 HD
ATOM     29  H   UNL     1      24.883   8.768  48.126  0.00  0.00    +0.000 HD
ENDBRANCH   7  27
BRANCH   1  31
ATOM     30  C   UNL     1      32.088   5.128  46.908  0.00  0.00    +0.000 C 
ATOM     31  O   UNL     1      31.736   6.495  47.102  0.00  0.00    +0.000 OA
ENDBRANCH   1  31
BRANCH  10  32
ATOM     32  O   UNL     1      30.788   8.980  46.895  0.00  0.00    +0.000 OA
ATOM     33  C   UNL     1      30.762  10.236  47.565  0.00  0.00    +0.000 C 
ENDBRANCH  10  32
TORSDOF 5
ENDMDL
MODEL 4
REMARK VINA RESULT:    -7.921      4.129      5.489
REMARK INTER + INTRA:         -10.607
REMARK INTER:                 -10.023
REMARK INTRA:                  -0.584
REMARK UNBOUND:                -0.602
REMARK  Name = 
REMARK  7 active torsions:
REMARK  status: ('A' for Active; 'I' for Inactive)
REMARK    1  A    between atoms: C_1  and  O_2
REMARK    2  A    between atoms: O_2  and  C_3
REMARK    3  A    between atoms: C_7  and  N_8
REMARK    4  A    between atoms: N_14  and  C_15
REMARK    5  A    between atoms: C_24  and  N_25
REMARK    6  A    between atoms: C_28  and  O_29
REMARK    7  A    between atoms: O_29  and  C_30
REMARK                            x       y       z     vdW  Elec       q    Type
REMARK                         _______ _______ _______ _____ _____    ______ ____
ROOT
ATOM      1  C   UNL     1      17.565  -0.611  51.845  0.00  0.00    +0.000 A 
ATOM      2  C   UNL     1      18.629   0.256  51.572  0.00  0.00    +0.000 A 
ATOM      3  C   UNL     1      19.814   0.221  52.291  0.00  0.00    +0.000 A 
ATOM      4  N   UNL     1      20.779   1.096  51.956  0.00  0.00    +0.000 NA
ATOM      5  C   UNL     1      21.948   1.095  52.625  0.00  0.00    +0.000 A 
ATOM      6  C   UNL     1      22.162   0.180  53.652  0.00  0.00    +0.000 A 
ATOM      7  C   UNL     1      21.197  -0.774  53.982  0.00  0.00    +0.000 A 
ATOM      8  C   UNL     1      19.954  -0.727  53.320  0.00  0.00    +0.000 A 
ATOM      9  C   UNL     1      18.857  -1.570  53.633  0.00  0.00    +0.000 A 
ATOM     10  C   UNL     1      17.659  -1.501  52.920  0.00  0.00    +0.000 A 
ENDROOT
BRANCH   5  11
ATOM     11  N   UNL     1      22.907   2.018  52.279  0.00  0.00    +0.000 N 
ATOM     12  C   UNL     1      22.514   3.330  51.748  0.00  0.00    +0.000 C 
ATOM     13  C   UNL     1      23.103   3.562  50.344  0.00  0.00    +0.000 C 
ATOM     14  N   UNL     1      24.560   3.353  50.352  0.00  0.00    +0.000 N 
ATOM     15  C   UNL     1      25.580   4.257  50.096  0.00  0.00    +0.000 C 
ATOM     16  O   UNL     1      26.750   3.928  50.283  0.00  0.00    +0.000 OA
ATOM     17  N   UNL     1      25.197   5.499  49.637  0.00  0.00    +0.000 N 
ATOM     18  C   UNL     1      24.932   2.010  50.825  0.00  0.00    +0.000 C 
ATOM     19  C   UNL     1      24.335   1.678  52.210  0.00  0.00    +0.000 C 
ATOM     20  H   UNL     1      24.234   5.633  49.481  0.00  0.00    +0.000 HD
BRANCH  17  21
ATOM     21  C   UNL     1      26.042   6.605  49.366  0.00  0.00    +0.000 A 
ATOM     22  C   UNL     1      26.941   6.659  48.297  0.00  0.00    +0.000 A 
ATOM     23  C   UNL     1      27.840   7.723  48.169  0.00  0.00    +0.000 A 
ATOM     24  C   UNL     1      27.834   8.761  49.095  0.00  0.00    +0.000 A 
ATOM     25  C   UNL     1      26.896   8.758  50.124  0.00  0.00    +0.000 A 
ATOM     26  C   UNL     1      25.999   7.690  50.253  0.00  0.00    +0.000 A 
ENDBRANCH  17  21
ENDBRANCH   5  11
BRANCH   7  27
ATOM     27  N   UNL     1      21.427  -1.596  55.104  0.00  0.00    +0.000 N 
ATOM     28  H   UNL     1      20.782  -1.604  55.849  0.00  0.00    +0.000 HD
ATOM     29  H   UNL     1      22.232  -2.162  55.144  0.00  0.00    +0.000 HD
ENDBRANCH   7  27
BRANCH   1  31
ATOM     30  C   UNL     1      15.548   0.523  51.365  0.00  0.00    +0.000 C 
ATOM     31  O   UNL     1      16.390  -0.602  51.131  0.00  0.00    +0.000 OA
ENDBRANCH   1  31
BRANCH  10  32
ATOM     32  O   UNL     1      16.575  -2.302  53.178  0.00  0.00    +0.000 OA
ATOM     33  C   UNL     1      16.856  -3.676  53.427  0.00  0.00    +0.000 C 
ENDBRANCH  10  32
TORSDOF 5
ENDMDL
MODEL 5
REMARK VINA RESULT:    -7.879      5.422      6.981
REMARK INTER + INTRA:         -10.553
REMARK INTER:                  -9.953
REMARK INTRA:                  -0.600
REMARK UNBOUND:                -0.602
REMARK  Name = 
REMARK  7 active torsions:
REMARK  status: ('A' for Active; 'I' for Inactive)
REMARK    1  A    between atoms: C_1  and  O_2
REMARK    2  A    between atoms: O_2  and  C_3
REMARK    3  A    between atoms: C_7  and  N_8
REMARK    4  A    between atoms: N_14  and  C_15
REMARK    5  A    between atoms: C_24  and  N_25
REMARK    6  A    between atoms: C_28  and  O_29
REMARK    7  A    between atoms: O_29  and  C_30
REMARK                            x       y       z     vdW  Elec       q    Type
REMARK                         _______ _______ _______ _____ _____    ______ ____
ROOT
ATOM      1  C   UNL     1      21.265  -0.029  53.722  0.00  0.00    +0.000 A 
ATOM      2  C   UNL     1      22.161   0.800  53.035  0.00  0.00    +0.000 A 
ATOM      3  C   UNL     1      21.878   1.314  51.780  0.00  0.00    +0.000 A 
ATOM      4  N   UNL     1      22.802   2.099  51.199  0.00  0.00    +0.000 NA
ATOM      5  C   UNL     1      22.568   2.625  49.981  0.00  0.00    +0.000 A 
ATOM      6  C   UNL     1      21.364   2.366  49.331  0.00  0.00    +0.000 A 
ATOM      7  C   UNL     1      20.367   1.599  49.937  0.00  0.00    +0.000 A 
ATOM      8  C   UNL     1      20.643   1.003  51.183  0.00  0.00    +0.000 A 
ATOM      9  C   UNL     1      19.758   0.120  51.853  0.00  0.00    +0.000 A 
ATOM     10  C   UNL     1      20.071  -0.415  53.104  0.00  0.00    +0.000 A 
ENDROOT
BRANCH   5  11
ATOM     11  N   UNL     1      23.541   3.403  49.400  0.00  0.00    +0.000 N 
ATOM     12  C   UNL     1      24.923   3.350  49.893  0.00  0.00    +0.000 C 
ATOM     13  C   UNL     1      25.398   4.736  50.368  0.00  0.00    +0.000 C 
ATOM     14  N   UNL     1      25.197   5.742  49.312  0.00  0.00    +0.000 N 
ATOM     15  C   UNL     1      26.137   6.499  48.628  0.00  0.00    +0.000 C 
ATOM     16  O   UNL     1      25.786   7.197  47.678  0.00  0.00    +0.000 OA
ATOM     17  N   UNL     1      27.438   6.410  49.074  0.00  0.00    +0.000 N 
ATOM     18  C   UNL     1      23.795   5.826  48.876  0.00  0.00    +0.000 C 
ATOM     19  C   UNL     1      23.224   4.462  48.431  0.00  0.00    +0.000 C 
ATOM     20  H   UNL     1      27.592   5.855  49.872  0.00  0.00    +0.000 HD
BRANCH  17  21
ATOM     21  C   UNL     1      28.579   7.033  48.505  0.00  0.00    +0.000 A 
ATOM     22  C   UNL     1      29.506   6.374  47.693  0.00  0.00    +0.000 A 
ATOM     23  C   UNL     1      30.678   7.014  47.278  0.00  0.00    +0.000 A 
ATOM     24  C   UNL     1      30.926   8.331  47.649  0.00  0.00    +0.000 A 
ATOM     25  C   UNL     1      29.978   9.024  48.396  0.00  0.00    +0.000 A 
ATOM     26  C   UNL     1      28.806   8.381  48.815  0.00  0.00    +0.000 A 
ENDBRANCH  17  21
ENDBRANCH   5  11
BRANCH   7  27
ATOM     27  N   UNL     1      19.219   1.278  49.182  0.00  0.00    +0.000 N 
ATOM     28  H   UNL     1      18.370   1.745  49.353  0.00  0.00    +0.000 HD
ATOM     29  H   UNL     1      19.267   0.585  48.483  0.00  0.00    +0.000 HD
ENDBRANCH   7  27
BRANCH   1  31
ATOM     30  C   UNL     1      22.709  -1.314  55.082  0.00  0.00    +0.000 C 
ATOM     31  O   UNL     1      21.522  -0.533  54.975  0.00  0.00    +0.000 OA
ENDBRANCH   1  31
BRANCH  10  32
ATOM     32  O   UNL     1      19.243  -1.263  53.796  0.00  0.00    +0.000 OA
ATOM     33  C   UNL     1      17.916  -1.389  53.295  0.00  0.00    +0.000 C 
ENDBRANCH  10  32
TORSDOF 5
ENDMDL
MODEL 6
REMARK VINA RESULT:    -7.817      2.869     10.806
REMARK INTER + INTRA:         -10.475
REMARK INTER:                  -9.901
REMARK INTRA:                  -0.574
REMARK UNBOUND:                -0.602
REMARK  Name = 
REMARK  7 active torsions:
REMARK  status: ('A' for Active; 'I' for Inactive)
REMARK    1  A    between atoms: C_1  and  O_2
REMARK    2  A    between atoms: O_2  and  C_3
REMARK    3  A    between atoms: C_7  and  N_8
REMARK    4  A    between atoms: N_14  and  C_15
REMARK    5  A    between atoms: C_24  and  N_25
REMARK    6  A    between atoms: C_28  and  O_29
REMARK    7  A    between atoms: O_29  and  C_30
REMARK                            x       y       z     vdW  Elec       q    Type
REMARK                         _______ _______ _______ _____ _____    ______ ____
ROOT
ATOM      1  C   UNL     1      28.006  -0.671  53.300  0.00  0.00    +0.000 A 
ATOM      2  C   UNL     1      26.684  -1.100  53.129  0.00  0.00    +0.000 A 
ATOM      3  C   UNL     1      25.620  -0.213  53.079  0.00  0.00    +0.000 A 
ATOM      4  N   UNL     1      24.386  -0.721  52.914  0.00  0.00    +0.000 NA
ATOM      5  C   UNL     1      23.323   0.104  52.855  0.00  0.00    +0.000 A 
ATOM      6  C   UNL     1      23.504   1.481  52.951  0.00  0.00    +0.000 A 
ATOM      7  C   UNL     1      24.780   2.035  53.068  0.00  0.00    +0.000 A 
ATOM      8  C   UNL     1      25.881   1.164  53.190  0.00  0.00    +0.000 A 
ATOM      9  C   UNL     1      27.212   1.597  53.417  0.00  0.00    +0.000 A 
ATOM     10  C   UNL     1      28.270   0.688  53.497  0.00  0.00    +0.000 A 
ENDROOT
BRANCH   5  11
ATOM     11  N   UNL     1      22.070  -0.443  52.712  0.00  0.00    +0.000 N 
ATOM     12  C   UNL     1      21.021   0.290  51.992  0.00  0.00    +0.000 C 
ATOM     13  C   UNL     1      19.798   0.542  52.895  0.00  0.00    +0.000 C 
ATOM     14  N   UNL     1      19.323  -0.719  53.487  0.00  0.00    +0.000 N 
ATOM     15  C   UNL     1      18.107  -1.367  53.319  0.00  0.00    +0.000 C 
ATOM     16  O   UNL     1      17.942  -2.489  53.795  0.00  0.00    +0.000 OA
ATOM     17  N   UNL     1      17.143  -0.686  52.607  0.00  0.00    +0.000 N 
ATOM     18  C   UNL     1      20.370  -1.408  54.258  0.00  0.00    +0.000 C 
ATOM     19  C   UNL     1      21.654  -1.652  53.436  0.00  0.00    +0.000 C 
ATOM     20  H   UNL     1      17.374   0.225  52.314  0.00  0.00    +0.000 HD
BRANCH  17  21
ATOM     21  C   UNL     1      15.854  -1.159  52.251  0.00  0.00    +0.000 A 
ATOM     22  C   UNL     1      15.623  -2.161  51.304  0.00  0.00    +0.000 A 
ATOM     23  C   UNL     1      14.322  -2.483  50.903  0.00  0.00    +0.000 A 
ATOM     24  C   UNL     1      13.234  -1.823  51.463  0.00  0.00    +0.000 A 
ATOM     25  C   UNL     1      13.444  -0.874  52.460  0.00  0.00    +0.000 A 
ATOM     26  C   UNL     1      14.747  -0.550  52.857  0.00  0.00    +0.000 A 
ENDBRANCH  17  21
ENDBRANCH   5  11
BRANCH   7  27
ATOM     27  N   UNL     1      24.889   3.426  53.276  0.00  0.00    +0.000 N 
ATOM     28  H   UNL     1      25.555   3.779  53.909  0.00  0.00    +0.000 HD
ATOM     29  H   UNL     1      24.298   4.045  52.788  0.00  0.00    +0.000 HD
ENDBRANCH   7  27
BRANCH   1  31
ATOM     30  C   UNL     1      28.739  -2.917  53.242  0.00  0.00    +0.000 C 
ATOM     31  O   UNL     1      29.075  -1.536  53.334  0.00  0.00    +0.000 OA
ENDBRANCH   1  31
BRANCH  10  32
ATOM     32  O   UNL     1      29.575   1.059  53.704  0.00  0.00    +0.000 OA
ATOM     33  C   UNL     1      29.797   2.024  54.728  0.00  0.00    +0.000 C 
ENDBRANCH  10  32
TORSDOF 5
ENDMDL
MODEL 7
REMARK VINA RESULT:    -7.689      3.913      4.852
REMARK INTER + INTRA:         -10.313
REMARK INTER:                  -9.746
REMARK INTRA:                  -0.567
REMARK UNBOUND:                -0.602
REMARK  Name = 
REMARK  7 active torsions:
REMARK  status: ('A' for Active; 'I' for Inactive)
REMARK    1  A    between atoms: C_1  and  O_2
REMARK    2  A    between atoms: O_2  and  C_3
REMARK    3  A    between atoms: C_7  and  N_8
REMARK    4  A    between atoms: N_14  and  C_15
REMARK    5  A    between atoms: C_24  and  N_25
REMARK    6  A    between atoms: C_28  and  O_29
REMARK    7  A    between atoms: O_29  and  C_30
REMARK                            x       y       z     vdW  Elec       q    Type
REMARK                         _______ _______ _______ _____ _____    ______ ____
ROOT
ATOM      1  C   UNL     1      15.836  -0.731  50.672  0.00  0.00    +0.000 A 
ATOM      2  C   UNL     1      16.936  -0.038  50.152  0.00  0.00    +0.000 A 
ATOM      3  C   UNL     1      18.134   0.072  50.840  0.00  0.00    +0.000 A 
ATOM      4  N   UNL     1      19.132   0.760  50.258  0.00  0.00    +0.000 NA
ATOM      5  C   UNL     1      20.316   0.889  50.889  0.00  0.00    +0.000 A 
ATOM      6  C   UNL     1      20.508   0.299  52.135  0.00  0.00    +0.000 A 
ATOM      7  C   UNL     1      19.506  -0.465  52.735  0.00  0.00    +0.000 A 
ATOM      8  C   UNL     1      18.251  -0.545  52.098  0.00  0.00    +0.000 A 
ATOM      9  C   UNL     1      17.122  -1.201  52.651  0.00  0.00    +0.000 A 
ATOM     10  C   UNL     1      15.912  -1.277  51.958  0.00  0.00    +0.000 A 
ENDROOT
BRANCH   5  11
ATOM     11  N   UNL     1      21.310   1.619  50.283  0.00  0.00    +0.000 N 
ATOM     12  C   UNL     1      22.605   1.803  50.952  0.00  0.00    +0.000 C 
ATOM     13  C   UNL     1      22.913   3.297  51.169  0.00  0.00    +0.000 C 
ATOM     14  N   UNL     1      22.804   4.037  49.901  0.00  0.00    +0.000 N 
ATOM     15  C   UNL     1      23.783   4.722  49.196  0.00  0.00    +0.000 C 
ATOM     16  O   UNL     1      23.530   5.171  48.079  0.00  0.00    +0.000 OA
ATOM     17  N   UNL     1      25.007   4.854  49.817  0.00  0.00    +0.000 N 
ATOM     18  C   UNL     1      21.479   3.894  49.278  0.00  0.00    +0.000 C 
ATOM     19  C   UNL     1      21.072   2.418  49.073  0.00  0.00    +0.000 C 
ATOM     20  H   UNL     1      25.077   4.494  50.730  0.00  0.00    +0.000 HD
BRANCH  17  21
ATOM     21  C   UNL     1      26.175   5.451  49.279  0.00  0.00    +0.000 A 
ATOM     22  C   UNL     1      26.289   6.811  48.975  0.00  0.00    +0.000 A 
ATOM     23  C   UNL     1      27.422   7.307  48.321  0.00  0.00    +0.000 A 
ATOM     24  C   UNL     1      28.466   6.454  47.985  0.00  0.00    +0.000 A 
ATOM     25  C   UNL     1      28.400   5.110  48.346  0.00  0.00    +0.000 A 
ATOM     26  C   UNL     1      27.263   4.614  48.996  0.00  0.00    +0.000 A 
ENDBRANCH  17  21
ENDBRANCH   5  11
BRANCH   7  27
ATOM     27  N   UNL     1      19.720  -0.940  54.046  0.00  0.00    +0.000 N 
ATOM     28  H   UNL     1      20.325  -1.701  54.201  0.00  0.00    +0.000 HD
ATOM     29  H   UNL     1      19.265  -0.510  54.806  0.00  0.00    +0.000 HD
ENDBRANCH   7  27
BRANCH   1  31
ATOM     30  C   UNL     1      13.887   0.332  49.864  0.00  0.00    +0.000 C 
ATOM     31  O   UNL     1      14.647  -0.866  49.996  0.00  0.00    +0.000 OA
ENDBRANCH   1  31
BRANCH  10  32
ATOM     32  O   UNL     1      14.796  -1.909  52.446  0.00  0.00    +0.000 OA
ATOM     33  C   UNL     1      14.867  -3.329  52.529  0.00  0.00    +0.000 C 
ENDBRANCH  10  32
TORSDOF 5
ENDMDL
MODEL 8
REMARK VINA RESULT:    -7.619      2.463     10.805
REMARK INTER + INTRA:         -10.225
REMARK INTER:                  -9.940
REMARK INTRA:                  -0.285
REMARK UNBOUND:                -0.602
REMARK  Name = 
REMARK  7 active torsions:
REMARK  status: ('A' for Active; 'I' for Inactive)
REMARK    1  A    between atoms: C_1  and  O_2
REMARK    2  A    between atoms: O_2  and  C_3
REMARK    3  A    between atoms: C_7  and  N_8
REMARK    4  A    between atoms: N_14  and  C_15
REMARK    5  A    between atoms: C_24  and  N_25
REMARK    6  A    between atoms: C_28  and  O_29
REMARK    7  A    between atoms: O_29  and  C_30
REMARK                            x       y       z     vdW  Elec       q    Type
REMARK                         _______ _______ _______ _____ _____    ______ ____
ROOT
ATOM      1  C   UNL     1      26.042  -0.006  52.928  0.00  0.00    +0.000 A 
ATOM      2  C   UNL     1      24.713   0.436  52.895  0.00  0.00    +0.000 A 
ATOM      3  C   UNL     1      24.348   1.638  52.310  0.00  0.00    +0.000 A 
ATOM      4  N   UNL     1      23.047   1.978  52.330  0.00  0.00    +0.000 NA
ATOM      5  C   UNL     1      22.647   3.135  51.769  0.00  0.00    +0.000 A 
ATOM      6  C   UNL     1      23.577   3.972  51.159  0.00  0.00    +0.000 A 
ATOM      7  C   UNL     1      24.925   3.616  51.078  0.00  0.00    +0.000 A 
ATOM      8  C   UNL     1      25.346   2.434  51.720  0.00  0.00    +0.000 A 
ATOM      9  C   UNL     1      26.698   2.015  51.800  0.00  0.00    +0.000 A 
ATOM     10  C   UNL     1      27.054   0.815  52.420  0.00  0.00    +0.000 A 
ENDROOT
BRANCH   5  11
ATOM     11  N   UNL     1      21.314   3.469  51.826  0.00  0.00    +0.000 N 
ATOM     12  C   UNL     1      20.401   2.722  52.700  0.00  0.00    +0.000 C 
ATOM     13  C   UNL     1      19.256   2.082  51.892  0.00  0.00    +0.000 C 
ATOM     14  N   UNL     1      18.574   3.094  51.069  0.00  0.00    +0.000 N 
ATOM     15  C   UNL     1      17.260   3.537  51.130  0.00  0.00    +0.000 C 
ATOM     16  O   UNL     1      16.906   4.493  50.443  0.00  0.00    +0.000 OA
ATOM     17  N   UNL     1      16.422   2.853  51.983  0.00  0.00    +0.000 N 
ATOM     18  C   UNL     1      19.494   3.788  50.155  0.00  0.00    +0.000 C 
ATOM     19  C   UNL     1      20.701   4.416  50.884  0.00  0.00    +0.000 C 
ATOM     20  H   UNL     1      16.806   2.075  52.448  0.00  0.00    +0.000 HD
BRANCH  17  21
ATOM     21  C   UNL     1      15.064   3.152  52.265  0.00  0.00    +0.000 A 
ATOM     22  C   UNL     1      13.985   2.660  51.525  0.00  0.00    +0.000 A 
ATOM     23  C   UNL     1      12.682   3.104  51.774  0.00  0.00    +0.000 A 
ATOM     24  C   UNL     1      12.438   4.027  52.785  0.00  0.00    +0.000 A 
ATOM     25  C   UNL     1      13.493   4.470  53.579  0.00  0.00    +0.000 A 
ATOM     26  C   UNL     1      14.797   4.029  53.325  0.00  0.00    +0.000 A 
ENDBRANCH  17  21
ENDBRANCH   5  11
BRANCH   7  27
ATOM     27  N   UNL     1      25.834   4.556  50.551  0.00  0.00    +0.000 N 
ATOM     28  H   UNL     1      25.685   4.937  49.656  0.00  0.00    +0.000 HD
ATOM     29  H   UNL     1      26.620   4.830  51.077  0.00  0.00    +0.000 HD
ENDBRANCH   7  27
BRANCH   1  31
ATOM     30  C   UNL     1      26.821  -2.206  52.559  0.00  0.00    +0.000 C 
ATOM     31  O   UNL     1      26.419  -1.204  53.488  0.00  0.00    +0.000 OA
ENDBRANCH   1  31
BRANCH  10  32
ATOM     32  O   UNL     1      28.346   0.362  52.513  0.00  0.00    +0.000 OA
ATOM     33  C   UNL     1      29.101   0.845  53.620  0.00  0.00    +0.000 C 
ENDBRANCH  10  32
TORSDOF 5
ENDMDL
MODEL 9
REMARK VINA RESULT:    -7.550      6.156      7.987
REMARK INTER + INTRA:         -10.137
REMARK INTER:                  -9.537
REMARK INTRA:                  -0.600
REMARK UNBOUND:                -0.602
REMARK  Name = 
REMARK  7 active torsions:
REMARK  status: ('A' for Active; 'I' for Inactive)
REMARK    1  A    between atoms: C_1  and  O_2
REMARK    2  A    between atoms: O_2  and  C_3
REMARK    3  A    between atoms: C_7  and  N_8
REMARK    4  A    between atoms: N_14  and  C_15
REMARK    5  A    between atoms: C_24  and  N_25
REMARK    6  A    between atoms: C_28  and  O_29
REMARK    7  A    between atoms: O_29  and  C_30
REMARK                            x       y       z     vdW  Elec       q    Type
REMARK                         _______ _______ _______ _____ _____    ______ ____
ROOT
ATOM      1  C   UNL     1      21.776   0.486  53.485  0.00  0.00    +0.000 A 
ATOM      2  C   UNL     1      22.828   1.350  53.158  0.00  0.00    +0.000 A 
ATOM      3  C   UNL     1      22.943   1.934  51.906  0.00  0.00    +0.000 A 
ATOM      4  N   UNL     1      23.990   2.749  51.686  0.00  0.00    +0.000 NA
ATOM      5  C   UNL     1      24.139   3.342  50.486  0.00  0.00    +0.000 A 
ATOM      6  C   UNL     1      23.203   3.121  49.479  0.00  0.00    +0.000 A 
ATOM      7  C   UNL     1      22.079   2.323  49.701  0.00  0.00    +0.000 A 
ATOM      8  C   UNL     1      21.962   1.658  50.938  0.00  0.00    +0.000 A 
ATOM      9  C   UNL     1      20.926   0.741  51.249  0.00  0.00    +0.000 A 
ATOM     10  C   UNL     1      20.841   0.136  52.505  0.00  0.00    +0.000 A 
ENDROOT
BRANCH   5  11
ATOM     11  N   UNL     1      25.232   4.150  50.280  0.00  0.00    +0.000 N 
ATOM     12  C   UNL     1      25.055   5.591  50.062  0.00  0.00    +0.000 C 
ATOM     13  C   UNL     1      25.637   6.024  48.703  0.00  0.00    +0.000 C 
ATOM     14  N   UNL     1      27.036   5.585  48.574  0.00  0.00    +0.000 N 
ATOM     15  C   UNL     1      28.189   6.347  48.448  0.00  0.00    +0.000 C 
ATOM     16  O   UNL     1      29.289   5.799  48.487  0.00  0.00    +0.000 OA
ATOM     17  N   UNL     1      28.012   7.703  48.284  0.00  0.00    +0.000 N 
ATOM     18  C   UNL     1      27.184   4.130  48.731  0.00  0.00    +0.000 C 
ATOM     19  C   UNL     1      26.578   3.606  50.051  0.00  0.00    +0.000 C 
ATOM     20  H   UNL     1      27.083   8.022  48.222  0.00  0.00    +0.000 HD
BRANCH  17  21
ATOM     21  C   UNL     1      29.027   8.690  48.198  0.00  0.00    +0.000 A 
ATOM     22  C   UNL     1      29.680   9.038  47.012  0.00  0.00    +0.000 A 
ATOM     23  C   UNL     1      30.765   9.922  47.023  0.00  0.00    +0.000 A 
ATOM     24  C   UNL     1      31.194  10.489  48.218  0.00  0.00    +0.000 A 
ATOM     25  C   UNL     1      30.507  10.210  49.396  0.00  0.00    +0.000 A 
ATOM     26  C   UNL     1      29.425   9.321  49.385  0.00  0.00    +0.000 A 
ENDBRANCH  17  21
ENDBRANCH   5  11
BRANCH   7  27
ATOM     27  N   UNL     1      21.230   2.046  48.609  0.00  0.00    +0.000 N 
ATOM     28  H   UNL     1      21.418   2.440  47.727  0.00  0.00    +0.000 HD
ATOM     29  H   UNL     1      20.448   1.459  48.730  0.00  0.00    +0.000 HD
ENDBRANCH   7  27
BRANCH   1  31
ATOM     30  C   UNL     1      22.554  -1.140  55.013  0.00  0.00    +0.000 C 
ATOM     31  O   UNL     1      21.637  -0.088  54.727  0.00  0.00    +0.000 OA
ENDBRANCH   1  31
BRANCH  10  32
ATOM     32  O   UNL     1      19.852  -0.748  52.857  0.00  0.00    +0.000 OA
ATOM     33  C   UNL     1      18.543  -0.443  52.387  0.00  0.00    +0.000 C 
ENDBRANCH  10  32
TORSDOF 5
ENDMDL
