MODEL 1
REMARK VINA RESULT:    -8.011      0.000      0.000
REMARK INTER + INTRA:         -12.206
REMARK INTER:                 -11.289
REMARK INTRA:                  -0.917
REMARK UNBOUND:                -0.917
REMARK  Name = 
REMARK  10 active torsions:
REMARK  status: ('A' for Active; 'I' for Inactive)
REMARK    1  A    between atoms: C_1  and  C_2
REMARK    2  A    between atoms: C_2  and  N_3
REMARK    3  A    between atoms: N_3  and  C_4
REMARK    4  A    between atoms: N_3  and  C_6
REMARK    5  A    between atoms: C_4  and  C_5
REMARK    6  A    between atoms: C_6  and  C_7
REMARK    7  A    between atoms: C_7  and  N_8
REMARK    8  A    between atoms: N_8  and  C_9
REMARK    9  A    between atoms: C_17  and  O_18
REMARK   10  A    between atoms: O_18  and  C_19
REMARK                            x       y       z     vdW  Elec       q    Type
REMARK                         _______ _______ _______ _____ _____    ______ ____
ROOT
ATOM      1  C   UNL     1      24.621   2.648  51.107  0.00  0.00    +0.000 A 
ATOM      2  C   UNL     1      24.528   3.233  49.836  0.00  0.00    +0.000 A 
ATOM      3  C   UNL     1      23.424   2.998  48.964  0.00  0.00    +0.000 A 
ATOM      4  C   UNL     1      22.342   2.223  49.413  0.00  0.00    +0.000 A 
ATOM      5  N   UNL     1      21.132   1.870  48.859  0.00  0.00    +0.000 NA
ATOM      6  C   UNL     1      20.499   1.154  49.783  0.00  0.00    +0.000 A 
ATOM      7  N   UNL     1      21.262   0.999  50.921  0.00  0.00    +0.000 N 
ATOM      8  C   UNL     1      21.096   0.318  52.176  0.00  0.00    +0.000 A 
ATOM      9  C   UNL     1      19.892  -0.285  52.620  0.00  0.00    +0.000 A 
ATOM     10  C   UNL     1      19.967  -0.847  53.876  0.00  0.00    +0.000 A 
ATOM     11  C   UNL     1      21.163  -1.279  54.391  0.00  0.00    +0.000 A 
ATOM     12  C   UNL     1      22.284  -0.567  54.082  0.00  0.00    +0.000 A 
ATOM     13  C   UNL     1      22.280   0.290  53.010  0.00  0.00    +0.000 A 
ATOM     14  C   UNL     1      23.490   1.043  52.720  0.00  0.00    +0.000 A 
ATOM     15  O   UNL     1      24.436   0.987  53.505  0.00  0.00    +0.000 OA
ATOM     16  C   UNL     1      23.558   1.816  51.483  0.00  0.00    +0.000 A 
ATOM     17  C   UNL     1      22.441   1.668  50.664  0.00  0.00    +0.000 A 
ENDROOT
BRANCH   1  18
ATOM     18  N   UNL     1      25.678   2.875  51.971  0.00  0.00    +0.000 N 
ATOM     19  H   UNL     1      25.494   3.436  52.758  0.00  0.00    +0.000 HD
BRANCH  18  20
ATOM     20  C   UNL     1      27.039   2.368  51.829  0.00  0.00    +0.000 C 
BRANCH  20  21
ATOM     21  C   UNL     1      27.674   1.974  53.205  0.00  0.00    +0.000 C 
BRANCH  21  22
ATOM     22  N   UNL     1      27.595   0.546  53.587  0.00  0.00    +0.000 N 
ATOM     23  H   UNL     1      26.790   0.452  54.205  0.00  0.00    +0.000 HD
BRANCH  22  25
ATOM     24  C   UNL     1      26.531  -1.582  52.832  0.00  0.00    +0.000 C 
ATOM     25  C   UNL     1      27.306  -0.327  52.440  0.00  0.00    +0.000 C 
ENDBRANCH  22  25
BRANCH  22  26
ATOM     26  C   UNL     1      28.753   0.110  54.389  0.00  0.00    +0.000 C 
ATOM     27  C   UNL     1      29.917  -0.559  53.654  0.00  0.00    +0.000 C 
ENDBRANCH  22  26
ENDBRANCH  21  22
ENDBRANCH  20  21
ENDBRANCH  18  20
ENDBRANCH   1  18
BRANCH   9  28
ATOM     28  O   UNL     1      18.709  -0.327  51.945  0.00  0.00    +0.000 OA
ATOM     29  C   UNL     1      17.638  -0.918  52.740  0.00  0.00    +0.000 C 
ENDBRANCH   9  28
TORSDOF 7
ENDMDL
MODEL 2
REMARK VINA RESULT:    -7.777      2.288      6.782
REMARK INTER + INTRA:         -11.876
REMARK INTER:                 -10.409
REMARK INTRA:                  -1.467
REMARK UNBOUND:                -0.917
REMARK  Name = 
REMARK  10 active torsions:
REMARK  status: ('A' for Active; 'I' for Inactive)
REMARK    1  A    between atoms: C_1  and  C_2
REMARK    2  A    between atoms: C_2  and  N_3
REMARK    3  A    between atoms: N_3  and  C_4
REMARK    4  A    between atoms: N_3  and  C_6
REMARK    5  A    between atoms: C_4  and  C_5
REMARK    6  A    between atoms: C_6  and  C_7
REMARK    7  A    between atoms: C_7  and  N_8
REMARK    8  A    between atoms: N_8  and  C_9
REMARK    9  A    between atoms: C_17  and  O_18
REMARK   10  A    between atoms: O_18  and  C_19
REMARK                            x       y       z     vdW  Elec       q    Type
REMARK                         _______ _______ _______ _____ _____    ______ ____
ROOT
ATOM      1  C   UNL     1      20.956   0.231  52.469  0.00  0.00    +0.000 A 
ATOM      2  C   UNL     1      20.258  -0.634  53.324  0.00  0.00    +0.000 A 
ATOM      3  C   UNL     1      20.908  -1.389  54.344  0.00  0.00    +0.000 A 
ATOM      4  C   UNL     1      22.282  -1.207  54.570  0.00  0.00    +0.000 A 
ATOM      5  N   UNL     1      23.169  -1.719  55.490  0.00  0.00    +0.000 NA
ATOM      6  C   UNL     1      24.337  -1.138  55.236  0.00  0.00    +0.000 A 
ATOM      7  N   UNL     1      24.259  -0.278  54.161  0.00  0.00    +0.000 N 
ATOM      8  C   UNL     1      25.188   0.561  53.454  0.00  0.00    +0.000 A 
ATOM      9  C   UNL     1      26.518   0.827  53.868  0.00  0.00    +0.000 A 
ATOM     10  C   UNL     1      27.207   1.691  53.045  0.00  0.00    +0.000 A 
ATOM     11  C   UNL     1      26.876   1.826  51.720  0.00  0.00    +0.000 A 
ATOM     12  C   UNL     1      25.559   1.736  51.379  0.00  0.00    +0.000 A 
ATOM     13  C   UNL     1      24.664   1.157  52.244  0.00  0.00    +0.000 A 
ATOM     14  C   UNL     1      23.265   1.093  51.851  0.00  0.00    +0.000 A 
ATOM     15  O   UNL     1      22.901   1.660  50.821  0.00  0.00    +0.000 OA
ATOM     16  C   UNL     1      22.338   0.321  52.676  0.00  0.00    +0.000 A 
ATOM     17  C   UNL     1      22.948  -0.347  53.734  0.00  0.00    +0.000 A 
ENDROOT
BRANCH   1  18
ATOM     18  N   UNL     1      20.339   0.982  51.482  0.00  0.00    +0.000 N 
ATOM     19  H   UNL     1      20.528   0.728  50.550  0.00  0.00    +0.000 HD
BRANCH  18  20
ATOM     20  C   UNL     1      19.440   2.112  51.686  0.00  0.00    +0.000 C 
BRANCH  20  21
ATOM     21  C   UNL     1      20.194   3.394  52.177  0.00  0.00    +0.000 C 
BRANCH  21  22
ATOM     22  N   UNL     1      21.121   4.026  51.211  0.00  0.00    +0.000 N 
ATOM     23  H   UNL     1      21.787   3.307  50.931  0.00  0.00    +0.000 HD
BRANCH  22  25
ATOM     24  C   UNL     1      21.092   3.837  48.723  0.00  0.00    +0.000 C 
ATOM     25  C   UNL     1      20.448   4.435  49.971  0.00  0.00    +0.000 C 
ENDBRANCH  22  25
BRANCH  22  26
ATOM     26  C   UNL     1      21.936   5.092  51.825  0.00  0.00    +0.000 C 
ATOM     27  C   UNL     1      23.199   4.675  52.581  0.00  0.00    +0.000 C 
ENDBRANCH  22  26
ENDBRANCH  21  22
ENDBRANCH  20  21
ENDBRANCH  18  20
ENDBRANCH   1  18
BRANCH   9  28
ATOM     28  O   UNL     1      27.133   0.341  54.982  0.00  0.00    +0.000 OA
ATOM     29  C   UNL     1      28.544   0.047  54.752  0.00  0.00    +0.000 C 
ENDBRANCH   9  28
TORSDOF 7
ENDMDL
MODEL 3
REMARK VINA RESULT:    -7.312      3.182      5.144
REMARK INTER + INTRA:         -11.220
REMARK INTER:                 -10.554
REMARK INTRA:                  -0.667
REMARK UNBOUND:                -0.917
REMARK  Name = 
REMARK  10 active torsions:
REMARK  status: ('A' for Active; 'I' for Inactive)
REMARK    1  A    between atoms: C_1  and  C_2
REMARK    2  A    between atoms: C_2  and  N_3
REMARK    3  A    between atoms: N_3  and  C_4
REMARK    4  A    between atoms: N_3  and  C_6
REMARK    5  A    between atoms: C_4  and  C_5
REMARK    6  A    between atoms: C_6  and  C_7
REMARK    7  A    between atoms: C_7  and  N_8
REMARK    8  A    between atoms: N_8  and  C_9
REMARK    9  A    between atoms: C_17  and  O_18
REMARK   10  A    between atoms: O_18  and  C_19
REMARK                            x       y       z     vdW  Elec       q    Type
REMARK                         _______ _______ _______ _____ _____    ______ ____
ROOT
ATOM      1  C   UNL     1      25.173   4.126  49.857  0.00  0.00    +0.000 A 
ATOM      2  C   UNL     1      24.146   4.635  49.050  0.00  0.00    +0.000 A 
ATOM      3  C   UNL     1      22.847   4.048  49.004  0.00  0.00    +0.000 A 
ATOM      4  C   UNL     1      22.544   2.973  49.857  0.00  0.00    +0.000 A 
ATOM      5  N   UNL     1      21.400   2.246  50.098  0.00  0.00    +0.000 NA
ATOM      6  C   UNL     1      21.713   1.377  51.054  0.00  0.00    +0.000 A 
ATOM      7  N   UNL     1      23.032   1.488  51.436  0.00  0.00    +0.000 N 
ATOM      8  C   UNL     1      23.887   0.806  52.370  0.00  0.00    +0.000 A 
ATOM      9  C   UNL     1      23.448  -0.145  53.326  0.00  0.00    +0.000 A 
ATOM     10  C   UNL     1      24.447  -0.637  54.137  0.00  0.00    +0.000 A 
ATOM     11  C   UNL     1      25.754  -0.657  53.723  0.00  0.00    +0.000 A 
ATOM     12  C   UNL     1      26.191   0.372  52.942  0.00  0.00    +0.000 A 
ATOM     13  C   UNL     1      25.286   1.169  52.286  0.00  0.00    +0.000 A 
ATOM     14  C   UNL     1      25.790   2.265  51.474  0.00  0.00    +0.000 A 
ATOM     15  O   UNL     1      26.992   2.524  51.491  0.00  0.00    +0.000 OA
ATOM     16  C   UNL     1      24.852   3.003  50.631  0.00  0.00    +0.000 A 
ATOM     17  C   UNL     1      23.556   2.496  50.651  0.00  0.00    +0.000 A 
ENDROOT
BRANCH   1  18
ATOM     18  N   UNL     1      26.436   4.691  49.924  0.00  0.00    +0.000 N 
ATOM     19  H   UNL     1      26.799   4.861  50.823  0.00  0.00    +0.000 HD
BRANCH  18  20
ATOM     20  C   UNL     1      27.281   5.061  48.793  0.00  0.00    +0.000 C 
BRANCH  20  21
ATOM     21  C   UNL     1      27.144   6.574  48.415  0.00  0.00    +0.000 C 
BRANCH  21  22
ATOM     22  N   UNL     1      27.806   7.544  49.315  0.00  0.00    +0.000 N 
ATOM     23  H   UNL     1      28.219   7.003  50.075  0.00  0.00    +0.000 HD
BRANCH  22  25
ATOM     24  C   UNL     1      30.118   7.305  48.407  0.00  0.00    +0.000 C 
ATOM     25  C   UNL     1      28.934   8.230  48.670  0.00  0.00    +0.000 C 
ENDBRANCH  22  25
BRANCH  22  26
ATOM     26  C   UNL     1      26.848   8.457  49.966  0.00  0.00    +0.000 C 
ATOM     27  C   UNL     1      25.360   8.115  49.869  0.00  0.00    +0.000 C 
ENDBRANCH  22  26
ENDBRANCH  21  22
ENDBRANCH  20  21
ENDBRANCH  18  20
ENDBRANCH   1  18
BRANCH   9  28
ATOM     28  O   UNL     1      22.168  -0.571  53.518  0.00  0.00    +0.000 OA
ATOM     29  C   UNL     1      22.048  -1.466  54.664  0.00  0.00    +0.000 C 
ENDBRANCH   9  28
TORSDOF 7
ENDMDL
MODEL 4
REMARK VINA RESULT:    -7.203      3.928      7.121
REMARK INTER + INTRA:         -11.067
REMARK INTER:                 -10.301
REMARK INTRA:                  -0.767
REMARK UNBOUND:                -0.917
REMARK  Name = 
REMARK  10 active torsions:
REMARK  status: ('A' for Active; 'I' for Inactive)
REMARK    1  A    between atoms: C_1  and  C_2
REMARK    2  A    between atoms: C_2  and  N_3
REMARK    3  A    between atoms: N_3  and  C_4
REMARK    4  A    between atoms: N_3  and  C_6
REMARK    5  A    between atoms: C_4  and  C_5
REMARK    6  A    between atoms: C_6  and  C_7
REMARK    7  A    between atoms: C_7  and  N_8
REMARK    8  A    between atoms: N_8  and  C_9
REMARK    9  A    between atoms: C_17  and  O_18
REMARK   10  A    between atoms: O_18  and  C_19
REMARK                            x       y       z     vdW  Elec       q    Type
REMARK                         _______ _______ _______ _____ _____    ______ ____
ROOT
ATOM      1  C   UNL     1      23.865   3.424  51.095  0.00  0.00    +0.000 A 
ATOM      2  C   UNL     1      22.742   3.937  51.761  0.00  0.00    +0.000 A 
ATOM      3  C   UNL     1      22.470   5.334  51.836  0.00  0.00    +0.000 A 
ATOM      4  C   UNL     1      23.299   6.238  51.151  0.00  0.00    +0.000 A 
ATOM      5  N   UNL     1      23.274   7.603  50.975  0.00  0.00    +0.000 NA
ATOM      6  C   UNL     1      24.303   7.890  50.184  0.00  0.00    +0.000 A 
ATOM      7  N   UNL     1      25.024   6.763  49.854  0.00  0.00    +0.000 N 
ATOM      8  C   UNL     1      26.209   6.498  49.082  0.00  0.00    +0.000 A 
ATOM      9  C   UNL     1      26.877   7.448  48.269  0.00  0.00    +0.000 A 
ATOM     10  C   UNL     1      27.971   6.950  47.595  0.00  0.00    +0.000 A 
ATOM     11  C   UNL     1      28.665   5.867  48.070  0.00  0.00    +0.000 A 
ATOM     12  C   UNL     1      27.960   4.882  48.698  0.00  0.00    +0.000 A 
ATOM     13  C   UNL     1      26.698   5.139  49.175  0.00  0.00    +0.000 A 
ATOM     14  C   UNL     1      25.972   4.060  49.826  0.00  0.00    +0.000 A 
ATOM     15  O   UNL     1      26.450   2.926  49.826  0.00  0.00    +0.000 OA
ATOM     16  C   UNL     1      24.710   4.366  50.495  0.00  0.00    +0.000 A 
ATOM     17  C   UNL     1      24.385   5.720  50.493  0.00  0.00    +0.000 A 
ENDROOT
BRANCH   1  18
ATOM     18  N   UNL     1      24.138   2.070  51.001  0.00  0.00    +0.000 N 
ATOM     19  H   UNL     1      24.194   1.691  50.094  0.00  0.00    +0.000 HD
BRANCH  18  20
ATOM     20  C   UNL     1      24.348   1.148  52.112  0.00  0.00    +0.000 C 
BRANCH  20  21
ATOM     21  C   UNL     1      25.494   1.620  53.069  0.00  0.00    +0.000 C 
BRANCH  21  22
ATOM     22  N   UNL     1      26.718   0.788  53.097  0.00  0.00    +0.000 N 
ATOM     23  H   UNL     1      27.493   1.399  52.841  0.00  0.00    +0.000 HD
BRANCH  22  25
ATOM     24  C   UNL     1      28.525   0.389  54.771  0.00  0.00    +0.000 C 
ATOM     25  C   UNL     1      27.037   0.301  54.446  0.00  0.00    +0.000 C 
ENDBRANCH  22  25
BRANCH  22  26
ATOM     26  C   UNL     1      26.704  -0.272  52.071  0.00  0.00    +0.000 C 
ATOM     27  C   UNL     1      26.776  -1.724  52.547  0.00  0.00    +0.000 C 
ENDBRANCH  22  26
ENDBRANCH  21  22
ENDBRANCH  20  21
ENDBRANCH  18  20
ENDBRANCH   1  18
BRANCH   9  28
ATOM     28  O   UNL     1      26.523   8.751  48.086  0.00  0.00    +0.000 OA
ATOM     29  C   UNL     1      27.448   9.673  48.736  0.00  0.00    +0.000 C 
ENDBRANCH   9  28
TORSDOF 7
ENDMDL
MODEL 5
REMARK VINA RESULT:    -7.111      1.693      4.206
REMARK INTER + INTRA:         -10.937
REMARK INTER:                 -10.302
REMARK INTRA:                  -0.636
REMARK UNBOUND:                -0.917
REMARK  Name = 
REMARK  10 active torsions:
REMARK  status: ('A' for Active; 'I' for Inactive)
REMARK    1  A    between atoms: C_1  and  C_2
REMARK    2  A    between atoms: C_2  and  N_3
REMARK    3  A    between atoms: N_3  and  C_4
REMARK    4  A    between atoms: N_3  and  C_6
REMARK    5  A    between atoms: C_4  and  C_5
REMARK    6  A    between atoms: C_6  and  C_7
REMARK    7  A    between atoms: C_7  and  N_8
REMARK    8  A    between atoms: N_8  and  C_9
REMARK    9  A    between atoms: C_17  and  O_18
REMARK   10  A    between atoms: O_18  and  C_19
REMARK                            x       y       z     vdW  Elec       q    Type
REMARK                         _______ _______ _______ _____ _____    ______ ____
ROOT
ATOM      1  C   UNL     1      23.420   0.005  53.430  0.00  0.00    +0.000 A 
ATOM      2  C   UNL     1      22.453  -0.714  54.149  0.00  0.00    +0.000 A 
ATOM      3  C   UNL     1      21.072  -0.705  53.793  0.00  0.00    +0.000 A 
ATOM      4  C   UNL     1      20.662  -0.026  52.635  0.00  0.00    +0.000 A 
ATOM      5  N   UNL     1      19.449   0.118  51.998  0.00  0.00    +0.000 NA
ATOM      6  C   UNL     1      19.690   0.843  50.910  0.00  0.00    +0.000 A 
ATOM      7  N   UNL     1      21.016   1.205  50.819  0.00  0.00    +0.000 N 
ATOM      8  C   UNL     1      21.802   1.985  49.902  0.00  0.00    +0.000 A 
ATOM      9  C   UNL     1      21.340   2.479  48.655  0.00  0.00    +0.000 A 
ATOM     10  C   UNL     1      22.287   3.172  47.932  0.00  0.00    +0.000 A 
ATOM     11  C   UNL     1      23.339   3.796  48.554  0.00  0.00    +0.000 A 
ATOM     12  C   UNL     1      23.874   3.198  49.656  0.00  0.00    +0.000 A 
ATOM     13  C   UNL     1      23.159   2.242  50.334  0.00  0.00    +0.000 A 
ATOM     14  C   UNL     1      23.769   1.617  51.497  0.00  0.00    +0.000 A 
ATOM     15  O   UNL     1      24.942   1.867  51.770  0.00  0.00    +0.000 OA
ATOM     16  C   UNL     1      22.954   0.735  52.329  0.00  0.00    +0.000 A 
ATOM     17  C   UNL     1      21.620   0.662  51.935  0.00  0.00    +0.000 A 
ENDROOT
BRANCH   1  18
ATOM     18  N   UNL     1      24.766  -0.003  53.753  0.00  0.00    +0.000 N 
ATOM     19  H   UNL     1      25.144   0.838  54.097  0.00  0.00    +0.000 HD
BRANCH  18  20
ATOM     20  C   UNL     1      25.680  -1.134  53.633  0.00  0.00    +0.000 C 
BRANCH  20  21
ATOM     21  C   UNL     1      27.111  -0.697  53.168  0.00  0.00    +0.000 C 
BRANCH  21  22
ATOM     22  N   UNL     1      28.021  -0.187  54.217  0.00  0.00    +0.000 N 
ATOM     23  H   UNL     1      27.745  -0.638  55.089  0.00  0.00    +0.000 HD
BRANCH  22  25
ATOM     24  C   UNL     1      29.538  -1.941  53.295  0.00  0.00    +0.000 C 
ATOM     25  C   UNL     1      29.416  -0.591  53.996  0.00  0.00    +0.000 C 
ENDBRANCH  22  25
BRANCH  22  26
ATOM     26  C   UNL     1      27.852   1.259  54.458  0.00  0.00    +0.000 C 
ATOM     27  C   UNL     1      28.693   2.223  53.620  0.00  0.00    +0.000 C 
ENDBRANCH  22  26
ENDBRANCH  21  22
ENDBRANCH  20  21
ENDBRANCH  18  20
ENDBRANCH   1  18
BRANCH   9  28
ATOM     28  O   UNL     1      20.097   2.308  48.125  0.00  0.00    +0.000 OA
ATOM     29  C   UNL     1      19.274   3.507  48.241  0.00  0.00    +0.000 C 
ENDBRANCH   9  28
TORSDOF 7
ENDMDL
MODEL 6
REMARK VINA RESULT:    -7.058      1.316      2.093
REMARK INTER + INTRA:         -10.864
REMARK INTER:                 -10.494
REMARK INTRA:                  -0.369
REMARK UNBOUND:                -0.917
REMARK  Name = 
REMARK  10 active torsions:
REMARK  status: ('A' for Active; 'I' for Inactive)
REMARK    1  A    between atoms: C_1  and  C_2
REMARK    2  A    between atoms: C_2  and  N_3
REMARK    3  A    between atoms: N_3  and  C_4
REMARK    4  A    between atoms: N_3  and  C_6
REMARK    5  A    between atoms: C_4  and  C_5
REMARK    6  A    between atoms: C_6  and  C_7
REMARK    7  A    between atoms: C_7  and  N_8
REMARK    8  A    between atoms: N_8  and  C_9
REMARK    9  A    between atoms: C_17  and  O_18
REMARK   10  A    between atoms: O_18  and  C_19
REMARK                            x       y       z     vdW  Elec       q    Type
REMARK                         _______ _______ _______ _____ _____    ______ ____
ROOT
ATOM      1  C   UNL     1      24.743   1.228  52.808  0.00  0.00    +0.000 A 
ATOM      2  C   UNL     1      25.286   2.034  51.797  0.00  0.00    +0.000 A 
ATOM      3  C   UNL     1      24.556   2.385  50.624  0.00  0.00    +0.000 A 
ATOM      4  C   UNL     1      23.213   1.989  50.501  0.00  0.00    +0.000 A 
ATOM      5  N   UNL     1      22.241   2.214  49.553  0.00  0.00    +0.000 NA
ATOM      6  C   UNL     1      21.142   1.618  50.007  0.00  0.00    +0.000 A 
ATOM      7  N   UNL     1      21.363   0.986  51.211  0.00  0.00    +0.000 N 
ATOM      8  C   UNL     1      20.569   0.189  52.107  0.00  0.00    +0.000 A 
ATOM      9  C   UNL     1      19.168  -0.004  51.996  0.00  0.00    +0.000 A 
ATOM     10  C   UNL     1      18.621  -0.779  52.996  0.00  0.00    +0.000 A 
ATOM     11  C   UNL     1      19.375  -1.705  53.670  0.00  0.00    +0.000 A 
ATOM     12  C   UNL     1      20.683  -1.408  53.913  0.00  0.00    +0.000 A 
ATOM     13  C   UNL     1      21.310  -0.424  53.189  0.00  0.00    +0.000 A 
ATOM     14  C   UNL     1      22.702  -0.125  53.487  0.00  0.00    +0.000 A 
ATOM     15  O   UNL     1      23.242  -0.669  54.449  0.00  0.00    +0.000 OA
ATOM     16  C   UNL     1      23.428   0.787  52.607  0.00  0.00    +0.000 A 
ATOM     17  C   UNL     1      22.692   1.213  51.504  0.00  0.00    +0.000 A 
ENDROOT
BRANCH   1  18
ATOM     18  N   UNL     1      25.433   0.887  53.959  0.00  0.00    +0.000 N 
ATOM     19  H   UNL     1      25.263   1.439  54.757  0.00  0.00    +0.000 HD
BRANCH  18  20
ATOM     20  C   UNL     1      26.387  -0.207  54.107  0.00  0.00    +0.000 C 
BRANCH  20  21
ATOM     21  C   UNL     1      27.419  -0.261  52.930  0.00  0.00    +0.000 C 
BRANCH  21  22
ATOM     22  N   UNL     1      28.821   0.074  53.263  0.00  0.00    +0.000 N 
ATOM     23  H   UNL     1      29.243   0.447  52.413  0.00  0.00    +0.000 HD
BRANCH  22  25
ATOM     24  C   UNL     1      28.705   2.538  53.642  0.00  0.00    +0.000 C 
ATOM     25  C   UNL     1      28.921   1.156  54.253  0.00  0.00    +0.000 C 
ENDBRANCH  22  25
BRANCH  22  26
ATOM     26  C   UNL     1      29.622  -1.117  53.603  0.00  0.00    +0.000 C 
ATOM     27  C   UNL     1      29.074  -2.485  53.189  0.00  0.00    +0.000 C 
ENDBRANCH  22  26
ENDBRANCH  21  22
ENDBRANCH  20  21
ENDBRANCH  18  20
ENDBRANCH   1  18
BRANCH   9  28
ATOM     28  O   UNL     1      18.351   0.517  51.038  0.00  0.00    +0.000 OA
ATOM     29  C   UNL     1      17.585   1.660  51.525  0.00  0.00    +0.000 C 
ENDBRANCH   9  28
TORSDOF 7
ENDMDL
MODEL 7
REMARK VINA RESULT:    -7.046      2.583      4.486
REMARK INTER + INTRA:         -10.847
REMARK INTER:                  -9.262
REMARK INTRA:                  -1.584
REMARK UNBOUND:                -0.917
REMARK  Name = 
REMARK  10 active torsions:
REMARK  status: ('A' for Active; 'I' for Inactive)
REMARK    1  A    between atoms: C_1  and  C_2
REMARK    2  A    between atoms: C_2  and  N_3
REMARK    3  A    between atoms: N_3  and  C_4
REMARK    4  A    between atoms: N_3  and  C_6
REMARK    5  A    between atoms: C_4  and  C_5
REMARK    6  A    between atoms: C_6  and  C_7
REMARK    7  A    between atoms: C_7  and  N_8
REMARK    8  A    between atoms: N_8  and  C_9
REMARK    9  A    between atoms: C_17  and  O_18
REMARK   10  A    between atoms: O_18  and  C_19
REMARK                            x       y       z     vdW  Elec       q    Type
REMARK                         _______ _______ _______ _____ _____    ______ ____
ROOT
ATOM      1  C   UNL     1      22.041   4.863  51.776  0.00  0.00    +0.000 A 
ATOM      2  C   UNL     1      20.761   5.039  51.230  0.00  0.00    +0.000 A 
ATOM      3  C   UNL     1      19.873   3.948  50.996  0.00  0.00    +0.000 A 
ATOM      4  C   UNL     1      20.245   2.655  51.400  0.00  0.00    +0.000 A 
ATOM      5  N   UNL     1      19.609   1.434  51.377  0.00  0.00    +0.000 NA
ATOM      6  C   UNL     1      20.450   0.573  51.942  0.00  0.00    +0.000 A 
ATOM      7  N   UNL     1      21.630   1.178  52.313  0.00  0.00    +0.000 N 
ATOM      8  C   UNL     1      22.860   0.737  52.916  0.00  0.00    +0.000 A 
ATOM      9  C   UNL     1      23.077  -0.553  53.464  0.00  0.00    +0.000 A 
ATOM     10  C   UNL     1      24.326  -0.730  54.019  0.00  0.00    +0.000 A 
ATOM     11  C   UNL     1      25.401   0.012  53.603  0.00  0.00    +0.000 A 
ATOM     12  C   UNL     1      25.181   1.310  53.246  0.00  0.00    +0.000 A 
ATOM     13  C   UNL     1      23.910   1.733  52.946  0.00  0.00    +0.000 A 
ATOM     14  C   UNL     1      23.712   3.128  52.584  0.00  0.00    +0.000 A 
ATOM     15  O   UNL     1      24.655   3.913  52.673  0.00  0.00    +0.000 OA
ATOM     16  C   UNL     1      22.403   3.546  52.088  0.00  0.00    +0.000 A 
ATOM     17  C   UNL     1      21.494   2.501  51.944  0.00  0.00    +0.000 A 
ENDROOT
BRANCH   1  18
ATOM     18  N   UNL     1      22.911   5.912  52.022  0.00  0.00    +0.000 N 
ATOM     19  H   UNL     1      23.232   6.013  52.947  0.00  0.00    +0.000 HD
BRANCH  18  20
ATOM     20  C   UNL     1      23.398   6.882  51.047  0.00  0.00    +0.000 C 
BRANCH  20  21
ATOM     21  C   UNL     1      24.753   6.443  50.395  0.00  0.00    +0.000 C 
BRANCH  21  22
ATOM     22  N   UNL     1      24.763   5.135  49.704  0.00  0.00    +0.000 N 
ATOM     23  H   UNL     1      24.413   4.449  50.372  0.00  0.00    +0.000 HD
BRANCH  22  25
ATOM     24  C   UNL     1      23.074   3.764  48.482  0.00  0.00    +0.000 C 
ATOM     25  C   UNL     1      23.825   5.089  48.574  0.00  0.00    +0.000 C 
ENDBRANCH  22  25
BRANCH  22  26
ATOM     26  C   UNL     1      26.126   4.685  49.365  0.00  0.00    +0.000 C 
ATOM     27  C   UNL     1      26.524   3.261  49.759  0.00  0.00    +0.000 C 
ENDBRANCH  22  26
ENDBRANCH  21  22
ENDBRANCH  20  21
ENDBRANCH  18  20
ENDBRANCH   1  18
BRANCH   9  28
ATOM     28  O   UNL     1      22.180  -1.577  53.509  0.00  0.00    +0.000 OA
ATOM     29  C   UNL     1      21.431  -1.603  54.761  0.00  0.00    +0.000 C 
ENDBRANCH   9  28
TORSDOF 7
ENDMDL
MODEL 8
REMARK VINA RESULT:    -7.004      2.275      7.893
REMARK INTER + INTRA:         -10.787
REMARK INTER:                 -10.117
REMARK INTRA:                  -0.669
REMARK UNBOUND:                -0.917
REMARK  Name = 
REMARK  10 active torsions:
REMARK  status: ('A' for Active; 'I' for Inactive)
REMARK    1  A    between atoms: C_1  and  C_2
REMARK    2  A    between atoms: C_2  and  N_3
REMARK    3  A    between atoms: N_3  and  C_4
REMARK    4  A    between atoms: N_3  and  C_6
REMARK    5  A    between atoms: C_4  and  C_5
REMARK    6  A    between atoms: C_6  and  C_7
REMARK    7  A    between atoms: C_7  and  N_8
REMARK    8  A    between atoms: N_8  and  C_9
REMARK    9  A    between atoms: C_17  and  O_18
REMARK   10  A    between atoms: O_18  and  C_19
REMARK                            x       y       z     vdW  Elec       q    Type
REMARK                         _______ _______ _______ _____ _____    ______ ____
ROOT
ATOM      1  C   UNL     1      21.036   0.232  52.555  0.00  0.00    +0.000 A 
ATOM      2  C   UNL     1      20.365  -0.653  53.411  0.00  0.00    +0.000 A 
ATOM      3  C   UNL     1      21.041  -1.403  54.418  0.00  0.00    +0.000 A 
ATOM      4  C   UNL     1      22.414  -1.195  54.630  0.00  0.00    +0.000 A 
ATOM      5  N   UNL     1      23.322  -1.696  55.537  0.00  0.00    +0.000 NA
ATOM      6  C   UNL     1      24.475  -1.090  55.274  0.00  0.00    +0.000 A 
ATOM      7  N   UNL     1      24.367  -0.224  54.207  0.00  0.00    +0.000 N 
ATOM      8  C   UNL     1      25.272   0.638  53.496  0.00  0.00    +0.000 A 
ATOM      9  C   UNL     1      26.601   0.928  53.898  0.00  0.00    +0.000 A 
ATOM     10  C   UNL     1      27.263   1.812  53.074  0.00  0.00    +0.000 A 
ATOM     11  C   UNL     1      26.916   1.950  51.754  0.00  0.00    +0.000 A 
ATOM     12  C   UNL     1      25.597   1.837  51.426  0.00  0.00    +0.000 A 
ATOM     13  C   UNL     1      24.723   1.233  52.296  0.00  0.00    +0.000 A 
ATOM     14  C   UNL     1      23.321   1.144  51.918  0.00  0.00    +0.000 A 
ATOM     15  O   UNL     1      22.935   1.712  50.897  0.00  0.00    +0.000 OA
ATOM     16  C   UNL     1      22.419   0.348  52.747  0.00  0.00    +0.000 A 
ATOM     17  C   UNL     1      23.054  -0.316  53.794  0.00  0.00    +0.000 A 
ENDROOT
BRANCH   1  18
ATOM     18  N   UNL     1      20.395   0.978  51.581  0.00  0.00    +0.000 N 
ATOM     19  H   UNL     1      20.945   1.289  50.826  0.00  0.00    +0.000 HD
BRANCH  18  20
ATOM     20  C   UNL     1      18.984   1.349  51.562  0.00  0.00    +0.000 C 
BRANCH  20  21
ATOM     21  C   UNL     1      18.137   0.428  50.620  0.00  0.00    +0.000 C 
BRANCH  21  22
ATOM     22  N   UNL     1      16.795   0.038  51.107  0.00  0.00    +0.000 N 
ATOM     23  H   UNL     1      16.496  -0.754  50.539  0.00  0.00    +0.000 HD
BRANCH  22  25
ATOM     24  C   UNL     1      16.471  -1.946  52.586  0.00  0.00    +0.000 C 
ATOM     25  C   UNL     1      16.823  -0.464  52.488  0.00  0.00    +0.000 C 
ENDBRANCH  22  25
BRANCH  22  26
ATOM     26  C   UNL     1      15.783   1.085  50.876  0.00  0.00    +0.000 C 
ATOM     27  C   UNL     1      15.195   1.790  52.100  0.00  0.00    +0.000 C 
ENDBRANCH  22  26
ENDBRANCH  21  22
ENDBRANCH  20  21
ENDBRANCH  18  20
ENDBRANCH   1  18
BRANCH   9  28
ATOM     28  O   UNL     1      27.238   0.446  55.001  0.00  0.00    +0.000 OA
ATOM     29  C   UNL     1      28.658   0.209  54.761  0.00  0.00    +0.000 C 
ENDBRANCH   9  28
TORSDOF 7
ENDMDL
MODEL 9
REMARK VINA RESULT:    -6.885      2.440      3.660
REMARK INTER + INTRA:         -10.619
REMARK INTER:                  -9.973
REMARK INTRA:                  -0.646
REMARK UNBOUND:                -0.917
REMARK  Name = 
REMARK  10 active torsions:
REMARK  status: ('A' for Active; 'I' for Inactive)
REMARK    1  A    between atoms: C_1  and  C_2
REMARK    2  A    between atoms: C_2  and  N_3
REMARK    3  A    between atoms: N_3  and  C_4
REMARK    4  A    between atoms: N_3  and  C_6
REMARK    5  A    between atoms: C_4  and  C_5
REMARK    6  A    between atoms: C_6  and  C_7
REMARK    7  A    between atoms: C_7  and  N_8
REMARK    8  A    between atoms: N_8  and  C_9
REMARK    9  A    between atoms: C_17  and  O_18
REMARK   10  A    between atoms: O_18  and  C_19
REMARK                            x       y       z     vdW  Elec       q    Type
REMARK                         _______ _______ _______ _____ _____    ______ ____
ROOT
ATOM      1  C   UNL     1      24.858   1.182  52.393  0.00  0.00    +0.000 A 
ATOM      2  C   UNL     1      26.061   1.540  51.768  0.00  0.00    +0.000 A 
ATOM      3  C   UNL     1      26.119   2.493  50.709  0.00  0.00    +0.000 A 
ATOM      4  C   UNL     1      24.950   3.171  50.325  0.00  0.00    +0.000 A 
ATOM      5  N   UNL     1      24.686   4.166  49.410  0.00  0.00    +0.000 NA
ATOM      6  C   UNL     1      23.390   4.436  49.526  0.00  0.00    +0.000 A 
ATOM      7  N   UNL     1      22.782   3.635  50.468  0.00  0.00    +0.000 N 
ATOM      8  C   UNL     1      21.441   3.478  50.963  0.00  0.00    +0.000 A 
ATOM      9  C   UNL     1      20.355   4.336  50.651  0.00  0.00    +0.000 A 
ATOM     10  C   UNL     1      19.172   4.004  51.276  0.00  0.00    +0.000 A 
ATOM     11  C   UNL     1      18.917   2.718  51.678  0.00  0.00    +0.000 A 
ATOM     12  C   UNL     1      19.964   1.974  52.139  0.00  0.00    +0.000 A 
ATOM     13  C   UNL     1      21.252   2.350  51.850  0.00  0.00    +0.000 A 
ATOM     14  C   UNL     1      22.342   1.540  52.372  0.00  0.00    +0.000 A 
ATOM     15  O   UNL     1      22.091   0.621  53.149  0.00  0.00    +0.000 OA
ATOM     16  C   UNL     1      23.704   1.822  51.923  0.00  0.00    +0.000 A 
ATOM     17  C   UNL     1      23.783   2.820  50.955  0.00  0.00    +0.000 A 
ENDROOT
BRANCH   1  18
ATOM     18  N   UNL     1      24.785   0.268  53.431  0.00  0.00    +0.000 N 
ATOM     19  H   UNL     1      23.945   0.247  53.944  0.00  0.00    +0.000 HD
BRANCH  18  20
ATOM     20  C   UNL     1      25.830  -0.665  53.840  0.00  0.00    +0.000 C 
BRANCH  20  21
ATOM     21  C   UNL     1      26.847  -0.019  54.840  0.00  0.00    +0.000 C 
BRANCH  21  22
ATOM     22  N   UNL     1      28.283  -0.194  54.528  0.00  0.00    +0.000 N 
ATOM     23  H   UNL     1      28.657  -0.839  55.224  0.00  0.00    +0.000 HD
BRANCH  22  25
ATOM     24  C   UNL     1      29.399  -2.082  53.338  0.00  0.00    +0.000 C 
ATOM     25  C   UNL     1      28.501  -0.853  53.233  0.00  0.00    +0.000 C 
ENDBRANCH  22  25
BRANCH  22  26
ATOM     26  C   UNL     1      29.055   1.051  54.699  0.00  0.00    +0.000 C 
ATOM     27  C   UNL     1      28.760   2.208  53.742  0.00  0.00    +0.000 C 
ENDBRANCH  22  26
ENDBRANCH  21  22
ENDBRANCH  20  21
ENDBRANCH  18  20
ENDBRANCH   1  18
BRANCH   9  28
ATOM     28  O   UNL     1      20.393   5.431  49.842  0.00  0.00    +0.000 OA
ATOM     29  C   UNL     1      19.310   5.434  48.863  0.00  0.00    +0.000 C 
ENDBRANCH   9  28
TORSDOF 7
ENDMDL
