MODEL 1
REMARK VINA RESULT:    -8.847      0.000      0.000
REMARK INTER + INTRA:         -12.264
REMARK INTER:                 -11.433
REMARK INTRA:                  -0.831
REMARK UNBOUND:                -0.831
REMARK  Name = 
REMARK  5 active torsions:
REMARK  status: ('A' for Active; 'I' for Inactive)
REMARK    1  A    between atoms: C_1  and  C_20
REMARK    2  A    between atoms: N_5  and  C_6
REMARK    3  A    between atoms: C_6  and  C_7
REMARK    4  A    between atoms: C_10  and  C_11
REMARK    5  A    between atoms: C_23  and  C_24
REMARK                            x       y       z     vdW  Elec       q    Type
REMARK                         _______ _______ _______ _____ _____    ______ ____
ROOT
ATOM      1  C   UNL     1      23.817   6.872  49.610  0.00  0.00    +0.000 C 
ATOM      2  C   UNL     1      23.556   5.709  50.238  0.00  0.00    +0.000 C 
ATOM      3  C   UNL     1      24.601   4.760  50.775  0.00  0.00    +0.000 C 
ATOM      4  C   UNL     1      24.273   3.306  50.402  0.00  0.00    +0.000 C 
ATOM      5  N   UNL     1      22.930   2.847  50.806  0.00  0.00    +0.000 N 
ATOM      6  C   UNL     1      21.906   3.750  50.257  0.00  0.00    +0.000 C 
ATOM      7  C   UNL     1      22.131   5.256  50.488  0.00  0.00    +0.000 C 
ATOM      8  H   UNL     1      22.789   1.921  50.403  0.00  0.00    +0.000 HD
ENDROOT
BRANCH   1   9
ATOM      9  C   UNL     1      25.152   7.449  49.421  0.00  0.00    +0.000 A 
ATOM     10  C   UNL     1      25.633   8.450  50.274  0.00  0.00    +0.000 A 
ATOM     11  C   UNL     1      26.925   8.961  50.105  0.00  0.00    +0.000 A 
ATOM     12  C   UNL     1      27.741   8.469  49.078  0.00  0.00    +0.000 A 
ATOM     13  C   UNL     1      27.258   7.474  48.224  0.00  0.00    +0.000 A 
ATOM     14  C   UNL     1      25.966   6.973  48.390  0.00  0.00    +0.000 A 
BRANCH  12  15
ATOM     15  C   UNL     1      29.123   8.968  48.893  0.00  0.00    +0.000 C 
ATOM     16  N   UNL     1      29.754   8.816  47.753  0.00  0.00    +0.000 N 
ATOM     17  C   UNL     1      31.086   9.439  47.979  0.00  0.00    +0.000 C 
ATOM     18  C   UNL     1      30.934  10.298  49.234  0.00  0.00    +0.000 C 
ATOM     19  N   UNL     1      29.805   9.654  49.874  0.00  0.00    +0.000 N 
ATOM     20  H   UNL     1      29.421   8.386  46.932  0.00  0.00    +0.000 HD
ATOM     21  H   UNL     1      29.571   9.698  50.829  0.00  0.00    +0.000 HD
ENDBRANCH  12  15
ENDBRANCH   1   9
BRANCH   5  22
ATOM     22  C   UNL     1      22.789   2.629  52.259  0.00  0.00    +0.000 C 
BRANCH  22  23
ATOM     23  C   UNL     1      23.969   1.861  52.831  0.00  0.00    +0.000 A 
ATOM     24  C   UNL     1      25.003   2.529  53.504  0.00  0.00    +0.000 A 
ATOM     25  C   UNL     1      26.183   1.856  53.834  0.00  0.00    +0.000 A 
ATOM     26  C   UNL     1      26.338   0.511  53.488  0.00  0.00    +0.000 A 
ATOM     27  C   UNL     1      25.272  -0.191  52.919  0.00  0.00    +0.000 A 
ATOM     28  C   UNL     1      24.090   0.480  52.603  0.00  0.00    +0.000 A 
BRANCH  26  29
ATOM     29  C   UNL     1      27.669  -0.132  53.621  0.00  0.00    +0.000 C 
ATOM     30  N   UNL     1      28.738   0.547  53.946  0.00  0.00    +0.000 N 
ATOM     31  C   UNL     1      29.859  -0.425  53.845  0.00  0.00    +0.000 C 
ATOM     32  C   UNL     1      29.270  -1.748  53.349  0.00  0.00    +0.000 C 
ATOM     33  N   UNL     1      27.854  -1.466  53.334  0.00  0.00    +0.000 N 
ATOM     34  H   UNL     1      28.790   1.496  54.202  0.00  0.00    +0.000 HD
ATOM     35  H   UNL     1      27.140  -2.118  53.149  0.00  0.00    +0.000 HD
ENDBRANCH  26  29
ENDBRANCH  22  23
ENDBRANCH   5  22
TORSDOF 5
ENDMDL
MODEL 2
REMARK VINA RESULT:    -8.799      1.300      8.542
REMARK INTER + INTRA:         -12.203
REMARK INTER:                 -11.922
REMARK INTRA:                  -0.281
REMARK UNBOUND:                -0.831
REMARK  Name = 
REMARK  5 active torsions:
REMARK  status: ('A' for Active; 'I' for Inactive)
REMARK    1  A    between atoms: C_1  and  C_20
REMARK    2  A    between atoms: N_5  and  C_6
REMARK    3  A    between atoms: C_6  and  C_7
REMARK    4  A    between atoms: C_10  and  C_11
REMARK    5  A    between atoms: C_23  and  C_24
REMARK                            x       y       z     vdW  Elec       q    Type
REMARK                         _______ _______ _______ _____ _____    ______ ____
ROOT
ATOM      1  C   UNL     1      22.784   1.983  52.195  0.00  0.00    +0.000 C 
ATOM      2  C   UNL     1      22.787   3.219  51.661  0.00  0.00    +0.000 C 
ATOM      3  C   UNL     1      24.023   4.035  51.367  0.00  0.00    +0.000 C 
ATOM      4  C   UNL     1      23.855   5.487  51.841  0.00  0.00    +0.000 C 
ATOM      5  N   UNL     1      22.664   6.181  51.311  0.00  0.00    +0.000 N 
ATOM      6  C   UNL     1      21.452   5.407  51.624  0.00  0.00    +0.000 C 
ATOM      7  C   UNL     1      21.492   3.907  51.272  0.00  0.00    +0.000 C 
ATOM      8  H   UNL     1      22.599   7.082  51.785  0.00  0.00    +0.000 HD
ENDROOT
BRANCH   1   9
ATOM      9  C   UNL     1      23.981   1.192  52.498  0.00  0.00    +0.000 A 
ATOM     10  C   UNL     1      23.979   0.244  53.530  0.00  0.00    +0.000 A 
ATOM     11  C   UNL     1      25.117  -0.531  53.779  0.00  0.00    +0.000 A 
ATOM     12  C   UNL     1      26.264  -0.359  52.993  0.00  0.00    +0.000 A 
ATOM     13  C   UNL     1      26.267   0.590  51.968  0.00  0.00    +0.000 A 
ATOM     14  C   UNL     1      25.133   1.368  51.728  0.00  0.00    +0.000 A 
BRANCH  12  15
ATOM     15  C   UNL     1      27.473  -1.185  53.214  0.00  0.00    +0.000 C 
ATOM     16  N   UNL     1      27.549  -2.414  52.761  0.00  0.00    +0.000 N 
ATOM     17  C   UNL     1      28.894  -2.885  53.189  0.00  0.00    +0.000 C 
ATOM     18  C   UNL     1      29.675  -1.626  53.561  0.00  0.00    +0.000 C 
ATOM     19  N   UNL     1      28.594  -0.708  53.858  0.00  0.00    +0.000 N 
ATOM     20  H   UNL     1      26.868  -2.912  52.253  0.00  0.00    +0.000 HD
ATOM     21  H   UNL     1      28.650   0.102  54.414  0.00  0.00    +0.000 HD
ENDBRANCH  12  15
ENDBRANCH   1   9
BRANCH   5  22
ATOM     22  C   UNL     1      22.770   6.536  49.883  0.00  0.00    +0.000 C 
BRANCH  22  23
ATOM     23  C   UNL     1      24.107   7.182  49.560  0.00  0.00    +0.000 A 
ATOM     24  C   UNL     1      25.017   6.555  48.696  0.00  0.00    +0.000 A 
ATOM     25  C   UNL     1      26.324   7.039  48.574  0.00  0.00    +0.000 A 
ATOM     26  C   UNL     1      26.729   8.150  49.319  0.00  0.00    +0.000 A 
ATOM     27  C   UNL     1      25.799   8.847  50.094  0.00  0.00    +0.000 A 
ATOM     28  C   UNL     1      24.491   8.370  50.205  0.00  0.00    +0.000 A 
BRANCH  26  29
ATOM     29  C   UNL     1      28.166   8.514  49.372  0.00  0.00    +0.000 C 
ATOM     30  N   UNL     1      28.576   9.653  49.869  0.00  0.00    +0.000 N 
ATOM     31  C   UNL     1      30.042   9.678  49.619  0.00  0.00    +0.000 C 
ATOM     32  C   UNL     1      30.393   8.406  48.845  0.00  0.00    +0.000 C 
ATOM     33  N   UNL     1      29.134   7.698  48.831  0.00  0.00    +0.000 N 
ATOM     34  H   UNL     1      28.031  10.343  50.312  0.00  0.00    +0.000 HD
ATOM     35  H   UNL     1      28.991   6.785  48.491  0.00  0.00    +0.000 HD
ENDBRANCH  26  29
ENDBRANCH  22  23
ENDBRANCH   5  22
TORSDOF 5
ENDMDL
MODEL 3
REMARK VINA RESULT:    -8.580      5.930     10.537
REMARK INTER + INTRA:         -11.920
REMARK INTER:                 -11.141
REMARK INTRA:                  -0.778
REMARK UNBOUND:                -0.831
REMARK  Name = 
REMARK  5 active torsions:
REMARK  status: ('A' for Active; 'I' for Inactive)
REMARK    1  A    between atoms: C_1  and  C_20
REMARK    2  A    between atoms: N_5  and  C_6
REMARK    3  A    between atoms: C_6  and  C_7
REMARK    4  A    between atoms: C_10  and  C_11
REMARK    5  A    between atoms: C_23  and  C_24
REMARK                            x       y       z     vdW  Elec       q    Type
REMARK                         _______ _______ _______ _____ _____    ______ ____
ROOT
ATOM      1  C   UNL     1      22.247   1.562  53.057  0.00  0.00    +0.000 C 
ATOM      2  C   UNL     1      21.186   1.257  52.285  0.00  0.00    +0.000 C 
ATOM      3  C   UNL     1      21.189   0.239  51.169  0.00  0.00    +0.000 C 
ATOM      4  C   UNL     1      20.489   0.789  49.916  0.00  0.00    +0.000 C 
ATOM      5  N   UNL     1      19.115   1.281  50.136  0.00  0.00    +0.000 N 
ATOM      6  C   UNL     1      19.111   2.297  51.201  0.00  0.00    +0.000 C 
ATOM      7  C   UNL     1      19.841   1.922  52.505  0.00  0.00    +0.000 C 
ATOM      8  H   UNL     1      18.806   1.723  49.271  0.00  0.00    +0.000 HD
ENDROOT
BRANCH   1   9
ATOM      9  C   UNL     1      23.553   0.898  52.999  0.00  0.00    +0.000 A 
ATOM     10  C   UNL     1      24.570   1.376  52.164  0.00  0.00    +0.000 A 
ATOM     11  C   UNL     1      25.824   0.755  52.152  0.00  0.00    +0.000 A 
ATOM     12  C   UNL     1      26.062  -0.351  52.977  0.00  0.00    +0.000 A 
ATOM     13  C   UNL     1      25.045  -0.832  53.806  0.00  0.00    +0.000 A 
ATOM     14  C   UNL     1      23.793  -0.214  53.810  0.00  0.00    +0.000 A 
BRANCH  12  15
ATOM     15  C   UNL     1      27.388  -1.012  53.008  0.00  0.00    +0.000 C 
ATOM     16  N   UNL     1      28.476  -0.340  53.302  0.00  0.00    +0.000 N 
ATOM     17  C   UNL     1      29.568  -1.348  53.220  0.00  0.00    +0.000 C 
ATOM     18  C   UNL     1      28.877  -2.711  53.251  0.00  0.00    +0.000 C 
ATOM     19  N   UNL     1      27.554  -2.360  52.778  0.00  0.00    +0.000 N 
ATOM     20  H   UNL     1      28.552   0.616  53.527  0.00  0.00    +0.000 HD
ATOM     21  H   UNL     1      26.898  -2.970  52.370  0.00  0.00    +0.000 HD
ENDBRANCH  12  15
ENDBRANCH   1   9
BRANCH   5  22
ATOM     22  C   UNL     1      18.128   0.207  50.360  0.00  0.00    +0.000 C 
BRANCH  22  23
ATOM     23  C   UNL     1      16.808   0.753  50.881  0.00  0.00    +0.000 A 
ATOM     24  C   UNL     1      16.162   1.813  50.228  0.00  0.00    +0.000 A 
ATOM     25  C   UNL     1      15.073   2.453  50.827  0.00  0.00    +0.000 A 
ATOM     26  C   UNL     1      14.627   2.040  52.086  0.00  0.00    +0.000 A 
ATOM     27  C   UNL     1      15.192   0.915  52.691  0.00  0.00    +0.000 A 
ATOM     28  C   UNL     1      16.271   0.269  52.086  0.00  0.00    +0.000 A 
BRANCH  26  29
ATOM     29  C   UNL     1      13.636   2.865  52.820  0.00  0.00    +0.000 C 
ATOM     30  N   UNL     1      13.459   4.134  52.557  0.00  0.00    +0.000 N 
ATOM     31  C   UNL     1      12.492   4.610  53.582  0.00  0.00    +0.000 C 
ATOM     32  C   UNL     1      12.196   3.429  54.510  0.00  0.00    +0.000 C 
ATOM     33  N   UNL     1      12.907   2.349  53.868  0.00  0.00    +0.000 N 
ATOM     34  H   UNL     1      13.875   4.660  51.836  0.00  0.00    +0.000 HD
ATOM     35  H   UNL     1      12.877   1.402  54.135  0.00  0.00    +0.000 HD
ENDBRANCH  26  29
ENDBRANCH  22  23
ENDBRANCH   5  22
TORSDOF 5
ENDMDL
MODEL 4
REMARK VINA RESULT:    -8.554      5.065      7.322
REMARK INTER + INTRA:         -11.886
REMARK INTER:                 -10.988
REMARK INTRA:                  -0.897
REMARK UNBOUND:                -0.831
REMARK  Name = 
REMARK  5 active torsions:
REMARK  status: ('A' for Active; 'I' for Inactive)
REMARK    1  A    between atoms: C_1  and  C_20
REMARK    2  A    between atoms: N_5  and  C_6
REMARK    3  A    between atoms: C_6  and  C_7
REMARK    4  A    between atoms: C_10  and  C_11
REMARK    5  A    between atoms: C_23  and  C_24
REMARK                            x       y       z     vdW  Elec       q    Type
REMARK                         _______ _______ _______ _____ _____    ______ ____
ROOT
ATOM      1  C   UNL     1      23.377   2.683  49.059  0.00  0.00    +0.000 C 
ATOM      2  C   UNL     1      22.667   2.214  50.104  0.00  0.00    +0.000 C 
ATOM      3  C   UNL     1      22.766   2.727  51.521  0.00  0.00    +0.000 C 
ATOM      4  C   UNL     1      22.840   1.566  52.526  0.00  0.00    +0.000 C 
ATOM      5  N   UNL     1      21.740   0.587  52.428  0.00  0.00    +0.000 N 
ATOM      6  C   UNL     1      21.660   0.059  51.056  0.00  0.00    +0.000 C 
ATOM      7  C   UNL     1      21.650   1.103  49.924  0.00  0.00    +0.000 C 
ATOM      8  H   UNL     1      21.962  -0.186  53.056  0.00  0.00    +0.000 HD
ENDROOT
BRANCH   1   9
ATOM      9  C   UNL     1      24.297   3.824  49.108  0.00  0.00    +0.000 A 
ATOM     10  C   UNL     1      25.649   3.648  49.427  0.00  0.00    +0.000 A 
ATOM     11  C   UNL     1      26.522   4.742  49.429  0.00  0.00    +0.000 A 
ATOM     12  C   UNL     1      26.041   6.018  49.110  0.00  0.00    +0.000 A 
ATOM     13  C   UNL     1      24.691   6.194  48.797  0.00  0.00    +0.000 A 
ATOM     14  C   UNL     1      23.821   5.102  48.805  0.00  0.00    +0.000 A 
BRANCH  12  15
ATOM     15  C   UNL     1      26.946   7.190  49.074  0.00  0.00    +0.000 C 
ATOM     16  N   UNL     1      26.988   8.048  50.066  0.00  0.00    +0.000 N 
ATOM     17  C   UNL     1      27.999   9.055  49.644  0.00  0.00    +0.000 C 
ATOM     18  C   UNL     1      28.780   8.405  48.502  0.00  0.00    +0.000 C 
ATOM     19  N   UNL     1      27.821   7.425  48.036  0.00  0.00    +0.000 N 
ATOM     20  H   UNL     1      26.467   8.029  50.901  0.00  0.00    +0.000 HD
ATOM     21  H   UNL     1      27.798   7.006  47.145  0.00  0.00    +0.000 HD
ENDBRANCH  12  15
ENDBRANCH   1   9
BRANCH   5  22
ATOM     22  C   UNL     1      20.448   1.093  52.928  0.00  0.00    +0.000 C 
BRANCH  22  23
ATOM     23  C   UNL     1      19.313   0.121  52.644  0.00  0.00    +0.000 A 
ATOM     24  C   UNL     1      18.365   0.395  51.647  0.00  0.00    +0.000 A 
ATOM     25  C   UNL     1      17.210  -0.383  51.537  0.00  0.00    +0.000 A 
ATOM     26  C   UNL     1      16.993  -1.440  52.427  0.00  0.00    +0.000 A 
ATOM     27  C   UNL     1      17.983  -1.789  53.349  0.00  0.00    +0.000 A 
ATOM     28  C   UNL     1      19.142  -1.018  53.448  0.00  0.00    +0.000 A 
BRANCH  26  29
ATOM     29  C   UNL     1      15.668  -2.108  52.464  0.00  0.00    +0.000 C 
ATOM     30  N   UNL     1      15.482  -3.245  53.085  0.00  0.00    +0.000 N 
ATOM     31  C   UNL     1      14.078  -3.627  52.777  0.00  0.00    +0.000 C 
ATOM     32  C   UNL     1      13.514  -2.563  51.832  0.00  0.00    +0.000 C 
ATOM     33  N   UNL     1      14.587  -1.598  51.782  0.00  0.00    +0.000 N 
ATOM     34  H   UNL     1      16.131  -3.739  53.635  0.00  0.00    +0.000 HD
ATOM     35  H   UNL     1      14.552  -0.722  51.334  0.00  0.00    +0.000 HD
ENDBRANCH  26  29
ENDBRANCH  22  23
ENDBRANCH   5  22
TORSDOF 5
ENDMDL
MODEL 5
REMARK VINA RESULT:    -8.517      1.760      2.101
REMARK INTER + INTRA:         -11.837
REMARK INTER:                 -12.566
REMARK INTRA:                   0.729
REMARK UNBOUND:                -0.831
REMARK  Name = 
REMARK  5 active torsions:
REMARK  status: ('A' for Active; 'I' for Inactive)
REMARK    1  A    between atoms: C_1  and  C_20
REMARK    2  A    between atoms: N_5  and  C_6
REMARK    3  A    between atoms: C_6  and  C_7
REMARK    4  A    between atoms: C_10  and  C_11
REMARK    5  A    between atoms: C_23  and  C_24
REMARK                            x       y       z     vdW  Elec       q    Type
REMARK                         _______ _______ _______ _____ _____    ______ ____
ROOT
ATOM      1  C   UNL     1      24.003   5.636  48.931  0.00  0.00    +0.000 C 
ATOM      2  C   UNL     1      23.421   4.657  49.651  0.00  0.00    +0.000 C 
ATOM      3  C   UNL     1      24.150   3.495  50.282  0.00  0.00    +0.000 C 
ATOM      4  C   UNL     1      23.410   2.172  50.028  0.00  0.00    +0.000 C 
ATOM      5  N   UNL     1      21.995   2.160  50.448  0.00  0.00    +0.000 N 
ATOM      6  C   UNL     1      21.272   3.271  49.809  0.00  0.00    +0.000 C 
ATOM      7  C   UNL     1      21.928   4.661  49.916  0.00  0.00    +0.000 C 
ATOM      8  H   UNL     1      21.587   1.284  50.123  0.00  0.00    +0.000 HD
ENDROOT
BRANCH   1   9
ATOM      9  C   UNL     1      25.446   5.782  48.715  0.00  0.00    +0.000 A 
ATOM     10  C   UNL     1      25.990   6.989  48.259  0.00  0.00    +0.000 A 
ATOM     11  C   UNL     1      27.373   7.124  48.098  0.00  0.00    +0.000 A 
ATOM     12  C   UNL     1      28.218   6.047  48.393  0.00  0.00    +0.000 A 
ATOM     13  C   UNL     1      27.675   4.841  48.843  0.00  0.00    +0.000 A 
ATOM     14  C   UNL     1      26.294   4.707  48.995  0.00  0.00    +0.000 A 
BRANCH  12  15
ATOM     15  C   UNL     1      29.688   6.169  48.261  0.00  0.00    +0.000 C 
ATOM     16  N   UNL     1      30.233   6.710  47.197  0.00  0.00    +0.000 N 
ATOM     17  C   UNL     1      31.698   6.637  47.451  0.00  0.00    +0.000 C 
ATOM     18  C   UNL     1      31.845   6.371  48.949  0.00  0.00    +0.000 C 
ATOM     19  N   UNL     1      30.562   5.771  49.250  0.00  0.00    +0.000 N 
ATOM     20  H   UNL     1      29.775   7.080  46.408  0.00  0.00    +0.000 HD
ATOM     21  H   UNL     1      30.353   5.188  50.016  0.00  0.00    +0.000 HD
ENDBRANCH  12  15
ENDBRANCH   1   9
BRANCH   5  22
ATOM     22  C   UNL     1      21.810   2.117  51.912  0.00  0.00    +0.000 C 
BRANCH  22  23
ATOM     23  C   UNL     1      23.091   1.720  52.630  0.00  0.00    +0.000 A 
ATOM     24  C   UNL     1      23.953   2.696  53.151  0.00  0.00    +0.000 A 
ATOM     25  C   UNL     1      25.225   2.342  53.611  0.00  0.00    +0.000 A 
ATOM     26  C   UNL     1      25.643   1.009  53.550  0.00  0.00    +0.000 A 
ATOM     27  C   UNL     1      24.750   0.017  53.139  0.00  0.00    +0.000 A 
ATOM     28  C   UNL     1      23.476   0.371  52.691  0.00  0.00    +0.000 A 
BRANCH  26  29
ATOM     29  C   UNL     1      27.064   0.673  53.812  0.00  0.00    +0.000 C 
ATOM     30  N   UNL     1      27.492  -0.563  53.834  0.00  0.00    +0.000 N 
ATOM     31  C   UNL     1      28.917  -0.471  54.251  0.00  0.00    +0.000 C 
ATOM     32  C   UNL     1      29.216   1.004  54.525  0.00  0.00    +0.000 C 
ATOM     33  N   UNL     1      27.988   1.647  54.119  0.00  0.00    +0.000 N 
ATOM     34  H   UNL     1      26.981  -1.377  53.621  0.00  0.00    +0.000 HD
ATOM     35  H   UNL     1      27.836   2.618  54.070  0.00  0.00    +0.000 HD
ENDBRANCH  26  29
ENDBRANCH  22  23
ENDBRANCH   5  22
TORSDOF 5
ENDMDL
MODEL 6
REMARK VINA RESULT:    -8.360      5.157     11.246
REMARK INTER + INTRA:         -11.634
REMARK INTER:                 -11.567
REMARK INTRA:                  -0.068
REMARK UNBOUND:                -0.831
REMARK  Name = 
REMARK  5 active torsions:
REMARK  status: ('A' for Active; 'I' for Inactive)
REMARK    1  A    between atoms: C_1  and  C_20
REMARK    2  A    between atoms: N_5  and  C_6
REMARK    3  A    between atoms: C_6  and  C_7
REMARK    4  A    between atoms: C_10  and  C_11
REMARK    5  A    between atoms: C_23  and  C_24
REMARK                            x       y       z     vdW  Elec       q    Type
REMARK                         _______ _______ _______ _____ _____    ______ ____
ROOT
ATOM      1  C   UNL     1      20.741  -0.187  53.327  0.00  0.00    +0.000 C 
ATOM      2  C   UNL     1      21.478   0.670  52.596  0.00  0.00    +0.000 C 
ATOM      3  C   UNL     1      21.041   1.298  51.293  0.00  0.00    +0.000 C 
ATOM      4  C   UNL     1      22.162   1.237  50.244  0.00  0.00    +0.000 C 
ATOM      5  N   UNL     1      23.447   1.824  50.672  0.00  0.00    +0.000 N 
ATOM      6  C   UNL     1      23.895   1.192  51.923  0.00  0.00    +0.000 C 
ATOM      7  C   UNL     1      22.854   1.111  53.056  0.00  0.00    +0.000 C 
ATOM      8  H   UNL     1      24.134   1.618  49.946  0.00  0.00    +0.000 HD
ENDROOT
BRANCH   1   9
ATOM      9  C   UNL     1      19.362  -0.585  53.027  0.00  0.00    +0.000 A 
ATOM     10  C   UNL     1      18.579   0.146  52.125  0.00  0.00    +0.000 A 
ATOM     11  C   UNL     1      17.279  -0.271  51.819  0.00  0.00    +0.000 A 
ATOM     12  C   UNL     1      16.758  -1.426  52.416  0.00  0.00    +0.000 A 
ATOM     13  C   UNL     1      17.538  -2.153  53.320  0.00  0.00    +0.000 A 
ATOM     14  C   UNL     1      18.831  -1.728  53.630  0.00  0.00    +0.000 A 
BRANCH  12  15
ATOM     15  C   UNL     1      15.397  -1.909  52.089  0.00  0.00    +0.000 C 
ATOM     16  N   UNL     1      14.792  -2.799  52.840  0.00  0.00    +0.000 N 
ATOM     17  C   UNL     1      13.477  -3.012  52.178  0.00  0.00    +0.000 C 
ATOM     18  C   UNL     1      13.296  -1.830  51.226  0.00  0.00    +0.000 C 
ATOM     19  N   UNL     1      14.673  -1.429  51.020  0.00  0.00    +0.000 N 
ATOM     20  H   UNL     1      15.134  -3.230  53.657  0.00  0.00    +0.000 HD
ATOM     21  H   UNL     1      15.024  -0.912  50.259  0.00  0.00    +0.000 HD
ENDBRANCH  12  15
ENDBRANCH   1   9
BRANCH   5  22
ATOM     22  C   UNL     1      23.433   3.297  50.742  0.00  0.00    +0.000 C 
BRANCH  22  23
ATOM     23  C   UNL     1      24.570   3.911  49.940  0.00  0.00    +0.000 A 
ATOM     24  C   UNL     1      25.814   3.268  49.850  0.00  0.00    +0.000 A 
ATOM     25  C   UNL     1      26.915   3.932  49.302  0.00  0.00    +0.000 A 
ATOM     26  C   UNL     1      26.780   5.247  48.845  0.00  0.00    +0.000 A 
ATOM     27  C   UNL     1      25.522   5.854  48.828  0.00  0.00    +0.000 A 
ATOM     28  C   UNL     1      24.421   5.183  49.364  0.00  0.00    +0.000 A 
BRANCH  26  29
ATOM     29  C   UNL     1      27.991   6.028  48.489  0.00  0.00    +0.000 C 
ATOM     30  N   UNL     1      27.930   7.099  47.741  0.00  0.00    +0.000 N 
ATOM     31  C   UNL     1      29.345   7.497  47.521  0.00  0.00    +0.000 C 
ATOM     32  C   UNL     1      30.224   6.449  48.207  0.00  0.00    +0.000 C 
ATOM     33  N   UNL     1      29.248   5.617  48.870  0.00  0.00    +0.000 N 
ATOM     34  H   UNL     1      27.122   7.544  47.398  0.00  0.00    +0.000 HD
ATOM     35  H   UNL     1      29.448   4.879  49.491  0.00  0.00    +0.000 HD
ENDBRANCH  26  29
ENDBRANCH  22  23
ENDBRANCH   5  22
TORSDOF 5
ENDMDL
MODEL 7
REMARK VINA RESULT:    -8.300      5.310     10.314
REMARK INTER + INTRA:         -11.557
REMARK INTER:                 -11.383
REMARK INTRA:                  -0.174
REMARK UNBOUND:                -0.831
REMARK  Name = 
REMARK  5 active torsions:
REMARK  status: ('A' for Active; 'I' for Inactive)
REMARK    1  A    between atoms: C_1  and  C_20
REMARK    2  A    between atoms: N_5  and  C_6
REMARK    3  A    between atoms: C_6  and  C_7
REMARK    4  A    between atoms: C_10  and  C_11
REMARK    5  A    between atoms: C_23  and  C_24
REMARK                            x       y       z     vdW  Elec       q    Type
REMARK                         _______ _______ _______ _____ _____    ______ ____
ROOT
ATOM      1  C   UNL     1      19.278   0.103  51.145  0.00  0.00    +0.000 C 
ATOM      2  C   UNL     1      20.317   0.870  51.531  0.00  0.00    +0.000 C 
ATOM      3  C   UNL     1      20.217   2.070  52.442  0.00  0.00    +0.000 C 
ATOM      4  C   UNL     1      21.035   3.251  51.894  0.00  0.00    +0.000 C 
ATOM      5  N   UNL     1      22.454   2.951  51.619  0.00  0.00    +0.000 N 
ATOM      6  C   UNL     1      22.555   1.803  50.705  0.00  0.00    +0.000 C 
ATOM      7  C   UNL     1      21.731   0.557  51.081  0.00  0.00    +0.000 C 
ATOM      8  H   UNL     1      22.853   3.766  51.154  0.00  0.00    +0.000 HD
ENDROOT
BRANCH   1   9
ATOM      9  C   UNL     1      17.897   0.254  51.614  0.00  0.00    +0.000 A 
ATOM     10  C   UNL     1      17.289  -0.730  52.402  0.00  0.00    +0.000 A 
ATOM     11  C   UNL     1      15.984  -0.551  52.874  0.00  0.00    +0.000 A 
ATOM     12  C   UNL     1      15.282   0.619  52.557  0.00  0.00    +0.000 A 
ATOM     13  C   UNL     1      15.887   1.599  51.766  0.00  0.00    +0.000 A 
ATOM     14  C   UNL     1      17.186   1.412  51.289  0.00  0.00    +0.000 A 
BRANCH  12  15
ATOM     15  C   UNL     1      13.911   0.851  53.067  0.00  0.00    +0.000 C 
ATOM     16  N   UNL     1      13.393   0.086  53.999  0.00  0.00    +0.000 N 
ATOM     17  C   UNL     1      12.030   0.639  54.219  0.00  0.00    +0.000 C 
ATOM     18  C   UNL     1      12.042   2.032  53.590  0.00  0.00    +0.000 C 
ATOM     19  N   UNL     1      13.122   1.894  52.635  0.00  0.00    +0.000 N 
ATOM     20  H   UNL     1      13.814  -0.682  54.450  0.00  0.00    +0.000 HD
ATOM     21  H   UNL     1      13.265   2.443  51.830  0.00  0.00    +0.000 HD
ENDBRANCH  12  15
ENDBRANCH   1   9
BRANCH   5  22
ATOM     22  C   UNL     1      23.274   2.796  52.835  0.00  0.00    +0.000 C 
BRANCH  22  23
ATOM     23  C   UNL     1      24.368   1.756  52.648  0.00  0.00    +0.000 A 
ATOM     24  C   UNL     1      24.219   0.458  53.159  0.00  0.00    +0.000 A 
ATOM     25  C   UNL     1      25.305  -0.423  53.179  0.00  0.00    +0.000 A 
ATOM     26  C   UNL     1      26.548  -0.008  52.691  0.00  0.00    +0.000 A 
ATOM     27  C   UNL     1      26.676   1.241  52.079  0.00  0.00    +0.000 A 
ATOM     28  C   UNL     1      25.587   2.114  52.049  0.00  0.00    +0.000 A 
BRANCH  26  29
ATOM     29  C   UNL     1      27.747  -0.849  52.930  0.00  0.00    +0.000 C 
ATOM     30  N   UNL     1      27.688  -2.156  52.938  0.00  0.00    +0.000 N 
ATOM     31  C   UNL     1      29.050  -2.602  53.333  0.00  0.00    +0.000 C 
ATOM     32  C   UNL     1      29.877  -1.344  53.611  0.00  0.00    +0.000 C 
ATOM     33  N   UNL     1      28.969  -0.289  53.228  0.00  0.00    +0.000 N 
ATOM     34  H   UNL     1      26.909  -2.721  52.729  0.00  0.00    +0.000 HD
ATOM     35  H   UNL     1      29.187   0.670  53.187  0.00  0.00    +0.000 HD
ENDBRANCH  26  29
ENDBRANCH  22  23
ENDBRANCH   5  22
TORSDOF 5
ENDMDL
MODEL 8
REMARK VINA RESULT:    -8.177      5.321      8.168
REMARK INTER + INTRA:         -11.399
REMARK INTER:                 -10.822
REMARK INTRA:                  -0.576
REMARK UNBOUND:                -0.831
REMARK  Name = 
REMARK  5 active torsions:
REMARK  status: ('A' for Active; 'I' for Inactive)
REMARK    1  A    between atoms: C_1  and  C_20
REMARK    2  A    between atoms: N_5  and  C_6
REMARK    3  A    between atoms: C_6  and  C_7
REMARK    4  A    between atoms: C_10  and  C_11
REMARK    5  A    between atoms: C_23  and  C_24
REMARK                            x       y       z     vdW  Elec       q    Type
REMARK                         _______ _______ _______ _____ _____    ______ ____
ROOT
ATOM      1  C   UNL     1      24.638   1.883  51.813  0.00  0.00    +0.000 C 
ATOM      2  C   UNL     1      23.357   1.467  51.823  0.00  0.00    +0.000 C 
ATOM      3  C   UNL     1      22.227   2.119  51.061  0.00  0.00    +0.000 C 
ATOM      4  C   UNL     1      20.980   2.274  51.946  0.00  0.00    +0.000 C 
ATOM      5  N   UNL     1      20.502   1.026  52.573  0.00  0.00    +0.000 N 
ATOM      6  C   UNL     1      21.590   0.404  53.344  0.00  0.00    +0.000 C 
ATOM      7  C   UNL     1      22.937   0.242  52.613  0.00  0.00    +0.000 C 
ATOM      8  H   UNL     1      19.754   1.276  53.219  0.00  0.00    +0.000 HD
ENDROOT
BRANCH   1   9
ATOM      9  C   UNL     1      25.163   2.982  50.996  0.00  0.00    +0.000 A 
ATOM     10  C   UNL     1      24.576   4.252  51.030  0.00  0.00    +0.000 A 
ATOM     11  C   UNL     1      25.115   5.300  50.275  0.00  0.00    +0.000 A 
ATOM     12  C   UNL     1      26.247   5.077  49.481  0.00  0.00    +0.000 A 
ATOM     13  C   UNL     1      26.829   3.808  49.442  0.00  0.00    +0.000 A 
ATOM     14  C   UNL     1      26.283   2.763  50.190  0.00  0.00    +0.000 A 
BRANCH  12  15
ATOM     15  C   UNL     1      26.857   6.173  48.694  0.00  0.00    +0.000 C 
ATOM     16  N   UNL     1      26.124   6.967  47.950  0.00  0.00    +0.000 N 
ATOM     17  C   UNL     1      27.100   7.908  47.336  0.00  0.00    +0.000 C 
ATOM     18  C   UNL     1      28.378   7.776  48.163  0.00  0.00    +0.000 C 
ATOM     19  N   UNL     1      28.206   6.454  48.729  0.00  0.00    +0.000 N 
ATOM     20  H   UNL     1      25.147   6.944  47.826  0.00  0.00    +0.000 HD
ATOM     21  H   UNL     1      28.918   5.867  49.073  0.00  0.00    +0.000 HD
ENDBRANCH  12  15
ENDBRANCH   1   9
BRANCH   5  22
ATOM     22  C   UNL     1      19.859   0.094  51.626  0.00  0.00    +0.000 C 
BRANCH  22  23
ATOM     23  C   UNL     1      18.356   0.021  51.840  0.00  0.00    +0.000 A 
ATOM     24  C   UNL     1      17.519   1.068  51.423  0.00  0.00    +0.000 A 
ATOM     25  C   UNL     1      16.177   1.099  51.813  0.00  0.00    +0.000 A 
ATOM     26  C   UNL     1      15.664   0.086  52.629  0.00  0.00    +0.000 A 
ATOM     27  C   UNL     1      16.459  -1.016  52.955  0.00  0.00    +0.000 A 
ATOM     28  C   UNL     1      17.795  -1.052  52.553  0.00  0.00    +0.000 A 
BRANCH  26  29
ATOM     29  C   UNL     1      14.319   0.242  53.235  0.00  0.00    +0.000 C 
ATOM     30  N   UNL     1      13.528  -0.780  53.441  0.00  0.00    +0.000 N 
ATOM     31  C   UNL     1      12.255  -0.189  53.932  0.00  0.00    +0.000 C 
ATOM     32  C   UNL     1      12.422   1.332  53.913  0.00  0.00    +0.000 C 
ATOM     33  N   UNL     1      13.810   1.483  53.542  0.00  0.00    +0.000 N 
ATOM     34  H   UNL     1      13.732  -1.732  53.300  0.00  0.00    +0.000 HD
ATOM     35  H   UNL     1      14.308   2.332  53.513  0.00  0.00    +0.000 HD
ENDBRANCH  26  29
ENDBRANCH  22  23
ENDBRANCH   5  22
TORSDOF 5
ENDMDL
MODEL 9
REMARK VINA RESULT:    -8.154      3.145      4.961
REMARK INTER + INTRA:         -11.368
REMARK INTER:                 -10.685
REMARK INTRA:                  -0.683
REMARK UNBOUND:                -0.831
REMARK  Name = 
REMARK  5 active torsions:
REMARK  status: ('A' for Active; 'I' for Inactive)
REMARK    1  A    between atoms: C_1  and  C_20
REMARK    2  A    between atoms: N_5  and  C_6
REMARK    3  A    between atoms: C_6  and  C_7
REMARK    4  A    between atoms: C_10  and  C_11
REMARK    5  A    between atoms: C_23  and  C_24
REMARK                            x       y       z     vdW  Elec       q    Type
REMARK                         _______ _______ _______ _____ _____    ______ ____
ROOT
ATOM      1  C   UNL     1      24.604   5.165  49.329  0.00  0.00    +0.000 C 
ATOM      2  C   UNL     1      24.529   4.173  50.238  0.00  0.00    +0.000 C 
ATOM      3  C   UNL     1      25.656   3.742  51.147  0.00  0.00    +0.000 C 
ATOM      4  C   UNL     1      25.784   2.211  51.184  0.00  0.00    +0.000 C 
ATOM      5  N   UNL     1      24.548   1.492  51.550  0.00  0.00    +0.000 N 
ATOM      6  C   UNL     1      23.454   1.883  50.646  0.00  0.00    +0.000 C 
ATOM      7  C   UNL     1      23.244   3.396  50.446  0.00  0.00    +0.000 C 
ATOM      8  H   UNL     1      24.726   0.496  51.424  0.00  0.00    +0.000 HD
ENDROOT
BRANCH   1   9
ATOM      9  C   UNL     1      25.761   6.044  49.132  0.00  0.00    +0.000 A 
ATOM     10  C   UNL     1      25.750   7.366  49.596  0.00  0.00    +0.000 A 
ATOM     11  C   UNL     1      26.878   8.179  49.436  0.00  0.00    +0.000 A 
ATOM     12  C   UNL     1      28.022   7.669  48.809  0.00  0.00    +0.000 A 
ATOM     13  C   UNL     1      28.030   6.352  48.342  0.00  0.00    +0.000 A 
ATOM     14  C   UNL     1      26.900   5.547  48.495  0.00  0.00    +0.000 A 
BRANCH  12  15
ATOM     15  C   UNL     1      29.241   8.496  48.652  0.00  0.00    +0.000 C 
ATOM     16  N   UNL     1      29.455   9.191  47.560  0.00  0.00    +0.000 N 
ATOM     17  C   UNL     1      30.762   9.862  47.797  0.00  0.00    +0.000 C 
ATOM     18  C   UNL     1      31.011   9.765  49.302  0.00  0.00    +0.000 C 
ATOM     19  N   UNL     1      30.189   8.622  49.643  0.00  0.00    +0.000 N 
ATOM     20  H   UNL     1      28.880   9.254  46.763  0.00  0.00    +0.000 HD
ATOM     21  H   UNL     1      30.290   8.044  50.434  0.00  0.00    +0.000 HD
ENDBRANCH  12  15
ENDBRANCH   1   9
BRANCH   5  22
ATOM     22  C   UNL     1      24.190   1.614  52.976  0.00  0.00    +0.000 C 
BRANCH  22  23
ATOM     23  C   UNL     1      22.875   0.917  53.288  0.00  0.00    +0.000 A 
ATOM     24  C   UNL     1      22.831  -0.469  53.504  0.00  0.00    +0.000 A 
ATOM     25  C   UNL     1      21.603  -1.134  53.572  0.00  0.00    +0.000 A 
ATOM     26  C   UNL     1      20.412  -0.417  53.422  0.00  0.00    +0.000 A 
ATOM     27  C   UNL     1      20.444   0.976  53.320  0.00  0.00    +0.000 A 
ATOM     28  C   UNL     1      21.670   1.639  53.265  0.00  0.00    +0.000 A 
BRANCH  26  29
ATOM     29  C   UNL     1      19.131  -1.149  53.256  0.00  0.00    +0.000 C 
ATOM     30  N   UNL     1      18.156  -0.682  52.519  0.00  0.00    +0.000 N 
ATOM     31  C   UNL     1      17.031  -1.633  52.720  0.00  0.00    +0.000 C 
ATOM     32  C   UNL     1      17.496  -2.679  53.736  0.00  0.00    +0.000 C 
ATOM     33  N   UNL     1      18.881  -2.321  53.932  0.00  0.00    +0.000 N 
ATOM     34  H   UNL     1      18.166   0.124  51.954  0.00  0.00    +0.000 HD
ATOM     35  H   UNL     1      19.537  -2.830  54.461  0.00  0.00    +0.000 HD
ENDBRANCH  26  29
ENDBRANCH  22  23
ENDBRANCH   5  22
TORSDOF 5
ENDMDL
