MODEL 1
REMARK VINA RESULT:    -8.025      0.000      0.000
REMARK INTER + INTRA:          -9.897
REMARK INTER:                  -9.901
REMARK INTRA:                   0.004
REMARK UNBOUND:                 0.004
REMARK  Name = 
REMARK  9 active torsions:
REMARK  status: ('A' for Active; 'I' for Inactive)
REMARK    1  A    between atoms: C_1  and  O_2
REMARK    2  A    between atoms: O_2  and  C_3
REMARK    3  A    between atoms: C_4  and  C_5
REMARK    4  A    between atoms: C_7  and  C_8
REMARK    5  A    between atoms: C_19  and  N_20
REMARK    6  A    between atoms: N_20  and  C_21
REMARK    7  A    between atoms: C_21  and  C_22
REMARK    8  A    between atoms: C_21  and  C_23
REMARK    9  A    between atoms: C_27  and  C_28
REMARK                            x       y       z     vdW  Elec       q    Type
REMARK                         _______ _______ _______ _____ _____    ______ ____
ROOT
ATOM      1  C   UNL     1      20.883  -1.143  53.799  0.00  0.00    +0.000 C 
ATOM      2  O   UNL     1      21.242  -1.827  54.755  0.00  0.00    +0.000 OA
ATOM      3  N   UNL     1      21.744  -0.292  53.108  0.00  0.00    +0.000 N 
ATOM      4  C   UNL     1      23.146  -0.212  53.558  0.00  0.00    +0.000 C 
ATOM      5  C   UNL     1      23.785   1.162  53.235  0.00  0.00    +0.000 C 
ATOM      6  N   UNL     1      23.612   1.409  51.789  0.00  0.00    +0.000 N 
ATOM      7  C   UNL     1      24.449   2.272  51.083  0.00  0.00    +0.000 A 
ATOM      8  N   UNL     1      23.848   3.169  50.254  0.00  0.00    +0.000 NA
ATOM      9  C   UNL     1      24.595   3.940  49.448  0.00  0.00    +0.000 A 
ATOM     10  C   UNL     1      25.968   3.932  49.458  0.00  0.00    +0.000 A 
ATOM     11  C   UNL     1      26.603   3.045  50.313  0.00  0.00    +0.000 A 
ATOM     12  C   UNL     1      25.869   2.123  51.078  0.00  0.00    +0.000 A 
ATOM     13  C   UNL     1      22.175   1.509  51.448  0.00  0.00    +0.000 C 
ATOM     14  C   UNL     1      21.540   0.136  51.709  0.00  0.00    +0.000 C 
ENDROOT
BRANCH   1  19
ATOM     15  C   UNL     1      16.777  -1.422  52.534  0.00  0.00    +0.000 A 
ATOM     16  C   UNL     1      17.499  -0.239  52.283  0.00  0.00    +0.000 A 
ATOM     17  C   UNL     1      17.015   0.962  51.520  0.00  0.00    +0.000 C 
ATOM     18  C   UNL     1      18.833  -0.156  52.738  0.00  0.00    +0.000 A 
ATOM     19  C   UNL     1      19.462  -1.224  53.384  0.00  0.00    +0.000 A 
ATOM     20  C   UNL     1      18.734  -2.369  53.670  0.00  0.00    +0.000 A 
ATOM     21  C   UNL     1      17.394  -2.483  53.248  0.00  0.00    +0.000 A 
ATOM     22  C   UNL     1      16.699  -3.781  53.560  0.00  0.00    +0.000 C 
BRANCH  15  24
ATOM     23  C   UNL     1      15.093  -1.977  50.877  0.00  0.00    +0.000 C 
ATOM     24  O   UNL     1      15.474  -1.692  52.209  0.00  0.00    +0.000 OA
ENDBRANCH  15  24
ENDBRANCH   1  19
BRANCH  12  25
ATOM     25  N   UNL     1      26.522   1.127  51.844  0.00  0.00    +0.000 N 
ATOM     26  H   UNL     1      26.225   0.189  51.795  0.00  0.00    +0.000 HD
BRANCH  25  27
ATOM     27  C   UNL     1      27.644   1.504  52.713  0.00  0.00    +0.000 C 
ATOM     28  C   UNL     1      27.109   2.340  53.874  0.00  0.00    +0.000 C 
ATOM     29  C   UNL     1      28.340   0.245  53.225  0.00  0.00    +0.000 C 
ENDBRANCH  25  27
ENDBRANCH  12  25
TORSDOF 4
ENDMDL
MODEL 2
REMARK VINA RESULT:    -7.916      4.600     10.460
REMARK INTER + INTRA:          -9.764
REMARK INTER:                  -9.691
REMARK INTRA:                  -0.072
REMARK UNBOUND:                 0.004
REMARK  Name = 
REMARK  9 active torsions:
REMARK  status: ('A' for Active; 'I' for Inactive)
REMARK    1  A    between atoms: C_1  and  O_2
REMARK    2  A    between atoms: O_2  and  C_3
REMARK    3  A    between atoms: C_4  and  C_5
REMARK    4  A    between atoms: C_7  and  C_8
REMARK    5  A    between atoms: C_19  and  N_20
REMARK    6  A    between atoms: N_20  and  C_21
REMARK    7  A    between atoms: C_21  and  C_22
REMARK    8  A    between atoms: C_21  and  C_23
REMARK    9  A    between atoms: C_27  and  C_28
REMARK                            x       y       z     vdW  Elec       q    Type
REMARK                         _______ _______ _______ _____ _____    ______ ____
ROOT
ATOM      1  C   UNL     1      25.569   5.784  48.969  0.00  0.00    +0.000 C 
ATOM      2  O   UNL     1      24.643   6.315  48.360  0.00  0.00    +0.000 OA
ATOM      3  N   UNL     1      25.387   4.717  49.846  0.00  0.00    +0.000 N 
ATOM      4  C   UNL     1      24.015   4.216  50.052  0.00  0.00    +0.000 C 
ATOM      5  C   UNL     1      23.829   3.580  51.453  0.00  0.00    +0.000 C 
ATOM      6  N   UNL     1      24.869   2.543  51.616  0.00  0.00    +0.000 N 
ATOM      7  C   UNL     1      24.716   1.478  52.504  0.00  0.00    +0.000 A 
ATOM      8  N   UNL     1      25.774   1.197  53.312  0.00  0.00    +0.000 NA
ATOM      9  C   UNL     1      25.744   0.108  54.097  0.00  0.00    +0.000 A 
ATOM     10  C   UNL     1      24.656  -0.724  54.192  0.00  0.00    +0.000 A 
ATOM     11  C   UNL     1      23.556  -0.441  53.396  0.00  0.00    +0.000 A 
ATOM     12  C   UNL     1      23.587   0.606  52.461  0.00  0.00    +0.000 A 
ATOM     13  C   UNL     1      26.218   3.152  51.592  0.00  0.00    +0.000 C 
ATOM     14  C   UNL     1      26.438   3.737  50.190  0.00  0.00    +0.000 C 
ENDROOT
BRANCH   1  19
ATOM     15  C   UNL     1      29.556   7.320  48.437  0.00  0.00    +0.000 A 
ATOM     16  C   UNL     1      28.526   8.192  48.840  0.00  0.00    +0.000 A 
ATOM     17  C   UNL     1      28.673   9.643  49.204  0.00  0.00    +0.000 C 
ATOM     18  C   UNL     1      27.220   7.675  48.974  0.00  0.00    +0.000 A 
ATOM     19  C   UNL     1      26.934   6.323  48.762  0.00  0.00    +0.000 A 
ATOM     20  C   UNL     1      27.940   5.477  48.321  0.00  0.00    +0.000 A 
ATOM     21  C   UNL     1      29.254   5.960  48.158  0.00  0.00    +0.000 A 
ATOM     22  C   UNL     1      30.290   4.959  47.723  0.00  0.00    +0.000 C 
BRANCH  15  24
ATOM     23  C   UNL     1      31.761   7.861  49.292  0.00  0.00    +0.000 C 
ATOM     24  O   UNL     1      30.873   7.624  48.217  0.00  0.00    +0.000 OA
ENDBRANCH  15  24
ENDBRANCH   1  19
BRANCH  12  25
ATOM     25  N   UNL     1      22.518   0.806  51.554  0.00  0.00    +0.000 N 
ATOM     26  H   UNL     1      22.701   1.041  50.615  0.00  0.00    +0.000 HD
BRANCH  25  27
ATOM     27  C   UNL     1      21.134   0.661  52.026  0.00  0.00    +0.000 C 
ATOM     28  C   UNL     1      20.741   1.922  52.793  0.00  0.00    +0.000 C 
ATOM     29  C   UNL     1      20.208   0.440  50.832  0.00  0.00    +0.000 C 
ENDBRANCH  25  27
ENDBRANCH  12  25
TORSDOF 4
ENDMDL
MODEL 3
REMARK VINA RESULT:    -7.895      4.626     10.580
REMARK INTER + INTRA:          -9.737
REMARK INTER:                  -9.645
REMARK INTRA:                  -0.093
REMARK UNBOUND:                 0.004
REMARK  Name = 
REMARK  9 active torsions:
REMARK  status: ('A' for Active; 'I' for Inactive)
REMARK    1  A    between atoms: C_1  and  O_2
REMARK    2  A    between atoms: O_2  and  C_3
REMARK    3  A    between atoms: C_4  and  C_5
REMARK    4  A    between atoms: C_7  and  C_8
REMARK    5  A    between atoms: C_19  and  N_20
REMARK    6  A    between atoms: N_20  and  C_21
REMARK    7  A    between atoms: C_21  and  C_22
REMARK    8  A    between atoms: C_21  and  C_23
REMARK    9  A    between atoms: C_27  and  C_28
REMARK                            x       y       z     vdW  Elec       q    Type
REMARK                         _______ _______ _______ _____ _____    ______ ____
ROOT
ATOM      1  C   UNL     1      25.516   5.864  48.915  0.00  0.00    +0.000 C 
ATOM      2  O   UNL     1      24.629   6.438  48.287  0.00  0.00    +0.000 OA
ATOM      3  N   UNL     1      25.270   4.785  49.762  0.00  0.00    +0.000 N 
ATOM      4  C   UNL     1      23.877   4.324  49.907  0.00  0.00    +0.000 C 
ATOM      5  C   UNL     1      23.621   3.664  51.286  0.00  0.00    +0.000 C 
ATOM      6  N   UNL     1      24.621   2.592  51.462  0.00  0.00    +0.000 N 
ATOM      7  C   UNL     1      24.404   1.513  52.320  0.00  0.00    +0.000 A 
ATOM      8  N   UNL     1      25.423   1.182  53.158  0.00  0.00    +0.000 NA
ATOM      9  C   UNL     1      25.332   0.077  53.917  0.00  0.00    +0.000 A 
ATOM     10  C   UNL     1      24.215  -0.722  53.954  0.00  0.00    +0.000 A 
ATOM     11  C   UNL     1      23.154  -0.387  53.127  0.00  0.00    +0.000 A 
ATOM     12  C   UNL     1      23.251   0.679  52.218  0.00  0.00    +0.000 A 
ATOM     13  C   UNL     1      25.989   3.158  51.500  0.00  0.00    +0.000 C 
ATOM     14  C   UNL     1      26.277   3.766  50.120  0.00  0.00    +0.000 C 
ENDROOT
BRANCH   1  19
ATOM     15  C   UNL     1      29.528   7.349  48.424  0.00  0.00    +0.000 A 
ATOM     16  C   UNL     1      29.259   5.987  48.184  0.00  0.00    +0.000 A 
ATOM     17  C   UNL     1      30.231   4.960  47.675  0.00  0.00    +0.000 C 
ATOM     18  C   UNL     1      27.945   5.515  48.385  0.00  0.00    +0.000 A 
ATOM     19  C   UNL     1      26.904   6.365  48.769  0.00  0.00    +0.000 A 
ATOM     20  C   UNL     1      27.180   7.695  49.049  0.00  0.00    +0.000 A 
ATOM     21  C   UNL     1      28.485   8.200  48.877  0.00  0.00    +0.000 A 
ATOM     22  C   UNL     1      28.680   9.666  49.157  0.00  0.00    +0.000 C 
BRANCH  15  24
ATOM     23  C   UNL     1      31.738   7.834  49.301  0.00  0.00    +0.000 C 
ATOM     24  O   UNL     1      30.731   7.997  48.321  0.00  0.00    +0.000 OA
ENDBRANCH  15  24
ENDBRANCH   1  19
BRANCH  12  25
ATOM     25  N   UNL     1      22.222   0.931  51.278  0.00  0.00    +0.000 N 
ATOM     26  H   UNL     1      22.445   1.163  50.348  0.00  0.00    +0.000 HD
BRANCH  25  27
ATOM     27  C   UNL     1      20.819   0.846  51.704  0.00  0.00    +0.000 C 
ATOM     28  C   UNL     1      20.481   2.081  52.538  0.00  0.00    +0.000 C 
ATOM     29  C   UNL     1      19.916   0.757  50.476  0.00  0.00    +0.000 C 
ENDBRANCH  25  27
ENDBRANCH  12  25
TORSDOF 4
ENDMDL
MODEL 4
REMARK VINA RESULT:    -7.842      2.239      3.256
REMARK INTER + INTRA:          -9.672
REMARK INTER:                  -9.892
REMARK INTRA:                   0.220
REMARK UNBOUND:                 0.004
REMARK  Name = 
REMARK  9 active torsions:
REMARK  status: ('A' for Active; 'I' for Inactive)
REMARK    1  A    between atoms: C_1  and  O_2
REMARK    2  A    between atoms: O_2  and  C_3
REMARK    3  A    between atoms: C_4  and  C_5
REMARK    4  A    between atoms: C_7  and  C_8
REMARK    5  A    between atoms: C_19  and  N_20
REMARK    6  A    between atoms: N_20  and  C_21
REMARK    7  A    between atoms: C_21  and  C_22
REMARK    8  A    between atoms: C_21  and  C_23
REMARK    9  A    between atoms: C_27  and  C_28
REMARK                            x       y       z     vdW  Elec       q    Type
REMARK                         _______ _______ _______ _____ _____    ______ ____
ROOT
ATOM      1  C   UNL     1      21.683   0.489  52.335  0.00  0.00    +0.000 C 
ATOM      2  O   UNL     1      22.486  -0.346  52.746  0.00  0.00    +0.000 OA
ATOM      3  N   UNL     1      22.047   1.789  51.992  0.00  0.00    +0.000 N 
ATOM      4  C   UNL     1      23.464   2.172  52.139  0.00  0.00    +0.000 C 
ATOM      5  C   UNL     1      23.634   3.689  52.408  0.00  0.00    +0.000 C 
ATOM      6  N   UNL     1      22.932   4.417  51.331  0.00  0.00    +0.000 N 
ATOM      7  C   UNL     1      23.267   5.725  50.985  0.00  0.00    +0.000 A 
ATOM      8  N   UNL     1      22.237   6.603  50.834  0.00  0.00    +0.000 NA
ATOM      9  C   UNL     1      22.477   7.842  50.377  0.00  0.00    +0.000 A 
ATOM     10  C   UNL     1      23.738   8.318  50.112  0.00  0.00    +0.000 A 
ATOM     11  C   UNL     1      24.805   7.449  50.284  0.00  0.00    +0.000 A 
ATOM     12  C   UNL     1      24.597   6.104  50.631  0.00  0.00    +0.000 A 
ATOM     13  C   UNL     1      21.480   4.130  51.370  0.00  0.00    +0.000 C 
ATOM     14  C   UNL     1      21.293   2.640  51.049  0.00  0.00    +0.000 C 
ENDROOT
BRANCH   1  19
ATOM     15  C   UNL     1      17.576  -0.751  51.967  0.00  0.00    +0.000 A 
ATOM     16  C   UNL     1      18.077   0.247  51.109  0.00  0.00    +0.000 A 
ATOM     17  C   UNL     1      17.343   0.903  49.973  0.00  0.00    +0.000 C 
ATOM     18  C   UNL     1      19.416   0.663  51.270  0.00  0.00    +0.000 A 
ATOM     19  C   UNL     1      20.261   0.084  52.221  0.00  0.00    +0.000 A 
ATOM     20  C   UNL     1      19.752  -0.865  53.095  0.00  0.00    +0.000 A 
ATOM     21  C   UNL     1      18.414  -1.293  52.976  0.00  0.00    +0.000 A 
ATOM     22  C   UNL     1      17.963  -2.361  53.936  0.00  0.00    +0.000 C 
BRANCH  15  24
ATOM     23  C   UNL     1      15.222  -0.519  52.507  0.00  0.00    +0.000 C 
ATOM     24  O   UNL     1      16.308  -1.268  51.998  0.00  0.00    +0.000 OA
ENDBRANCH  15  24
ENDBRANCH   1  19
BRANCH  12  25
ATOM     25  N   UNL     1      25.674   5.186  50.670  0.00  0.00    +0.000 N 
ATOM     26  H   UNL     1      26.181   5.051  51.504  0.00  0.00    +0.000 HD
BRANCH  25  27
ATOM     27  C   UNL     1      26.031   4.438  49.457  0.00  0.00    +0.000 C 
ATOM     28  C   UNL     1      27.193   5.147  48.765  0.00  0.00    +0.000 C 
ATOM     29  C   UNL     1      26.412   3.008  49.832  0.00  0.00    +0.000 C 
ENDBRANCH  25  27
ENDBRANCH  12  25
TORSDOF 4
ENDMDL
MODEL 5
REMARK VINA RESULT:    -7.741      2.949      8.869
REMARK INTER + INTRA:          -9.547
REMARK INTER:                  -9.795
REMARK INTRA:                   0.248
REMARK UNBOUND:                 0.004
REMARK  Name = 
REMARK  9 active torsions:
REMARK  status: ('A' for Active; 'I' for Inactive)
REMARK    1  A    between atoms: C_1  and  O_2
REMARK    2  A    between atoms: O_2  and  C_3
REMARK    3  A    between atoms: C_4  and  C_5
REMARK    4  A    between atoms: C_7  and  C_8
REMARK    5  A    between atoms: C_19  and  N_20
REMARK    6  A    between atoms: N_20  and  C_21
REMARK    7  A    between atoms: C_21  and  C_22
REMARK    8  A    between atoms: C_21  and  C_23
REMARK    9  A    between atoms: C_27  and  C_28
REMARK                            x       y       z     vdW  Elec       q    Type
REMARK                         _______ _______ _______ _____ _____    ______ ____
ROOT
ATOM      1  C   UNL     1      24.530   2.185  51.874  0.00  0.00    +0.000 C 
ATOM      2  O   UNL     1      24.719   3.269  51.326  0.00  0.00    +0.000 OA
ATOM      3  N   UNL     1      23.263   1.633  52.050  0.00  0.00    +0.000 N 
ATOM      4  C   UNL     1      22.102   2.397  51.558  0.00  0.00    +0.000 C 
ATOM      5  C   UNL     1      20.815   2.089  52.366  0.00  0.00    +0.000 C 
ATOM      6  N   UNL     1      20.613   0.625  52.346  0.00  0.00    +0.000 N 
ATOM      7  C   UNL     1      19.357   0.051  52.540  0.00  0.00    +0.000 A 
ATOM      8  N   UNL     1      19.288  -0.992  53.411  0.00  0.00    +0.000 NA
ATOM      9  C   UNL     1      18.139  -1.674  53.547  0.00  0.00    +0.000 A 
ATOM     10  C   UNL     1      16.978  -1.331  52.899  0.00  0.00    +0.000 A 
ATOM     11  C   UNL     1      17.018  -0.255  52.026  0.00  0.00    +0.000 A 
ATOM     12  C   UNL     1      18.226   0.407  51.746  0.00  0.00    +0.000 A 
ATOM     13  C   UNL     1      21.731  -0.063  53.031  0.00  0.00    +0.000 C 
ATOM     14  C   UNL     1      23.003   0.188  52.210  0.00  0.00    +0.000 C 
ENDROOT
BRANCH   1  19
ATOM     15  C   UNL     1      27.927   0.029  53.409  0.00  0.00    +0.000 A 
ATOM     16  C   UNL     1      27.892   1.433  53.516  0.00  0.00    +0.000 A 
ATOM     17  C   UNL     1      28.904   2.304  54.208  0.00  0.00    +0.000 C 
ATOM     18  C   UNL     1      26.785   2.122  52.976  0.00  0.00    +0.000 A 
ATOM     19  C   UNL     1      25.714   1.450  52.381  0.00  0.00    +0.000 A 
ATOM     20  C   UNL     1      25.773   0.072  52.235  0.00  0.00    +0.000 A 
ATOM     21  C   UNL     1      26.870  -0.650  52.747  0.00  0.00    +0.000 A 
ATOM     22  C   UNL     1      26.824  -2.146  52.586  0.00  0.00    +0.000 C 
BRANCH  15  24
ATOM     23  C   UNL     1      30.222  -0.750  53.299  0.00  0.00    +0.000 C 
ATOM     24  O   UNL     1      28.915  -0.819  53.834  0.00  0.00    +0.000 OA
ENDBRANCH  15  24
ENDBRANCH   1  19
BRANCH  12  25
ATOM     25  N   UNL     1      18.292   1.413  50.752  0.00  0.00    +0.000 N 
ATOM     26  H   UNL     1      19.079   1.479  50.164  0.00  0.00    +0.000 HD
BRANCH  25  27
ATOM     27  C   UNL     1      17.178   2.359  50.607  0.00  0.00    +0.000 C 
ATOM     28  C   UNL     1      17.490   3.616  51.417  0.00  0.00    +0.000 C 
ATOM     29  C   UNL     1      16.984   2.698  49.130  0.00  0.00    +0.000 C 
ENDBRANCH  25  27
ENDBRANCH  12  25
TORSDOF 4
ENDMDL
MODEL 6
REMARK VINA RESULT:    -7.615      4.667      7.295
REMARK INTER + INTRA:          -9.392
REMARK INTER:                  -9.000
REMARK INTRA:                  -0.392
REMARK UNBOUND:                 0.004
REMARK  Name = 
REMARK  9 active torsions:
REMARK  status: ('A' for Active; 'I' for Inactive)
REMARK    1  A    between atoms: C_1  and  O_2
REMARK    2  A    between atoms: O_2  and  C_3
REMARK    3  A    between atoms: C_4  and  C_5
REMARK    4  A    between atoms: C_7  and  C_8
REMARK    5  A    between atoms: C_19  and  N_20
REMARK    6  A    between atoms: N_20  and  C_21
REMARK    7  A    between atoms: C_21  and  C_22
REMARK    8  A    between atoms: C_21  and  C_23
REMARK    9  A    between atoms: C_27  and  C_28
REMARK                            x       y       z     vdW  Elec       q    Type
REMARK                         _______ _______ _______ _____ _____    ______ ____
ROOT
ATOM      1  C   UNL     1      25.032   4.348  49.523  0.00  0.00    +0.000 C 
ATOM      2  O   UNL     1      26.120   4.788  49.159  0.00  0.00    +0.000 OA
ATOM      3  N   UNL     1      24.897   3.380  50.516  0.00  0.00    +0.000 N 
ATOM      4  C   UNL     1      26.125   2.861  51.147  0.00  0.00    +0.000 C 
ATOM      5  C   UNL     1      25.949   1.411  51.665  0.00  0.00    +0.000 C 
ATOM      6  N   UNL     1      24.772   1.394  52.557  0.00  0.00    +0.000 N 
ATOM      7  C   UNL     1      24.608   0.422  53.543  0.00  0.00    +0.000 A 
ATOM      8  N   UNL     1      23.384  -0.168  53.625  0.00  0.00    +0.000 NA
ATOM      9  C   UNL     1      23.117  -1.016  54.632  0.00  0.00    +0.000 A 
ATOM     10  C   UNL     1      24.049  -1.391  55.569  0.00  0.00    +0.000 A 
ATOM     11  C   UNL     1      25.311  -0.822  55.489  0.00  0.00    +0.000 A 
ATOM     12  C   UNL     1      25.600   0.170  54.538  0.00  0.00    +0.000 A 
ATOM     13  C   UNL     1      23.544   1.738  51.805  0.00  0.00    +0.000 C 
ATOM     14  C   UNL     1      23.682   3.193  51.333  0.00  0.00    +0.000 C 
ENDROOT
BRANCH   1  19
ATOM     15  C   UNL     1      21.463   5.864  47.650  0.00  0.00    +0.000 A 
ATOM     16  C   UNL     1      21.764   4.492  47.558  0.00  0.00    +0.000 A 
ATOM     17  C   UNL     1      20.909   3.428  46.927  0.00  0.00    +0.000 C 
ATOM     18  C   UNL     1      22.956   4.022  48.149  0.00  0.00    +0.000 A 
ATOM     19  C   UNL     1      23.815   4.869  48.855  0.00  0.00    +0.000 A 
ATOM     20  C   UNL     1      23.540   6.228  48.904  0.00  0.00    +0.000 A 
ATOM     21  C   UNL     1      22.368   6.737  48.311  0.00  0.00    +0.000 A 
ATOM     22  C   UNL     1      22.129   8.216  48.457  0.00  0.00    +0.000 C 
BRANCH  15  24
ATOM     23  C   UNL     1      19.110   6.451  47.732  0.00  0.00    +0.000 C 
ATOM     24  O   UNL     1      20.384   6.523  47.122  0.00  0.00    +0.000 OA
ENDBRANCH  15  24
ENDBRANCH   1  19
BRANCH  12  25
ATOM     25  N   UNL     1      26.843   0.848  54.547  0.00  0.00    +0.000 N 
ATOM     26  H   UNL     1      26.871   1.832  54.571  0.00  0.00    +0.000 HD
BRANCH  25  27
ATOM     27  C   UNL     1      28.090   0.072  54.519  0.00  0.00    +0.000 C 
ATOM     28  C   UNL     1      28.055  -0.871  53.318  0.00  0.00    +0.000 C 
ATOM     29  C   UNL     1      29.282   1.022  54.431  0.00  0.00    +0.000 C 
ENDBRANCH  25  27
ENDBRANCH  12  25
TORSDOF 4
ENDMDL
MODEL 7
REMARK VINA RESULT:    -7.544      3.103      6.143
REMARK INTER + INTRA:          -9.305
REMARK INTER:                 -10.118
REMARK INTRA:                   0.814
REMARK UNBOUND:                 0.004
REMARK  Name = 
REMARK  9 active torsions:
REMARK  status: ('A' for Active; 'I' for Inactive)
REMARK    1  A    between atoms: C_1  and  O_2
REMARK    2  A    between atoms: O_2  and  C_3
REMARK    3  A    between atoms: C_4  and  C_5
REMARK    4  A    between atoms: C_7  and  C_8
REMARK    5  A    between atoms: C_19  and  N_20
REMARK    6  A    between atoms: N_20  and  C_21
REMARK    7  A    between atoms: C_21  and  C_22
REMARK    8  A    between atoms: C_21  and  C_23
REMARK    9  A    between atoms: C_27  and  C_28
REMARK                            x       y       z     vdW  Elec       q    Type
REMARK                         _______ _______ _______ _____ _____    ______ ____
ROOT
ATOM      1  C   UNL     1      22.177   3.256  51.105  0.00  0.00    +0.000 C 
ATOM      2  O   UNL     1      21.049   3.730  50.991  0.00  0.00    +0.000 OA
ATOM      3  N   UNL     1      23.303   3.825  50.513  0.00  0.00    +0.000 N 
ATOM      4  C   UNL     1      23.119   5.048  49.709  0.00  0.00    +0.000 C 
ATOM      5  C   UNL     1      24.190   5.184  48.598  0.00  0.00    +0.000 C 
ATOM      6  N   UNL     1      25.517   5.093  49.242  0.00  0.00    +0.000 N 
ATOM      7  C   UNL     1      26.660   5.637  48.657  0.00  0.00    +0.000 A 
ATOM      8  N   UNL     1      27.769   4.848  48.626  0.00  0.00    +0.000 NA
ATOM      9  C   UNL     1      28.936   5.353  48.197  0.00  0.00    +0.000 A 
ATOM     10  C   UNL     1      29.071   6.628  47.705  0.00  0.00    +0.000 A 
ATOM     11  C   UNL     1      27.949   7.441  47.701  0.00  0.00    +0.000 A 
ATOM     12  C   UNL     1      26.737   7.007  48.264  0.00  0.00    +0.000 A 
ATOM     13  C   UNL     1      25.703   3.762  49.862  0.00  0.00    +0.000 C 
ATOM     14  C   UNL     1      24.683   3.635  51.003  0.00  0.00    +0.000 C 
ENDROOT
BRANCH   1  19
ATOM     15  C   UNL     1      22.609  -0.314  53.472  0.00  0.00    +0.000 A 
ATOM     16  C   UNL     1      23.757   0.315  52.953  0.00  0.00    +0.000 A 
ATOM     17  C   UNL     1      25.186  -0.079  53.206  0.00  0.00    +0.000 C 
ATOM     18  C   UNL     1      23.590   1.464  52.151  0.00  0.00    +0.000 A 
ATOM     19  C   UNL     1      22.330   2.013  51.898  0.00  0.00    +0.000 A 
ATOM     20  C   UNL     1      21.199   1.365  52.371  0.00  0.00    +0.000 A 
ATOM     21  C   UNL     1      21.324   0.205  53.161  0.00  0.00    +0.000 A 
ATOM     22  C   UNL     1      20.045  -0.402  53.672  0.00  0.00    +0.000 C 
BRANCH  15  24
ATOM     23  C   UNL     1      23.139  -1.497  55.523  0.00  0.00    +0.000 C 
ATOM     24  O   UNL     1      22.550  -1.448  54.239  0.00  0.00    +0.000 OA
ENDBRANCH  15  24
ENDBRANCH   1  19
BRANCH  12  25
ATOM     25  N   UNL     1      25.633   7.886  48.385  0.00  0.00    +0.000 N 
ATOM     26  H   UNL     1      24.933   7.902  47.692  0.00  0.00    +0.000 HD
BRANCH  25  27
ATOM     27  C   UNL     1      25.541   8.773  49.552  0.00  0.00    +0.000 C 
ATOM     28  C   UNL     1      24.481   8.226  50.505  0.00  0.00    +0.000 C 
ATOM     29  C   UNL     1      26.902   8.854  50.240  0.00  0.00    +0.000 C 
ENDBRANCH  25  27
ENDBRANCH  12  25
TORSDOF 4
ENDMDL
MODEL 8
REMARK VINA RESULT:    -7.485      3.780      7.211
REMARK INTER + INTRA:          -9.231
REMARK INTER:                  -8.878
REMARK INTRA:                  -0.353
REMARK UNBOUND:                 0.004
REMARK  Name = 
REMARK  9 active torsions:
REMARK  status: ('A' for Active; 'I' for Inactive)
REMARK    1  A    between atoms: C_1  and  O_2
REMARK    2  A    between atoms: O_2  and  C_3
REMARK    3  A    between atoms: C_4  and  C_5
REMARK    4  A    between atoms: C_7  and  C_8
REMARK    5  A    between atoms: C_19  and  N_20
REMARK    6  A    between atoms: N_20  and  C_21
REMARK    7  A    between atoms: C_21  and  C_22
REMARK    8  A    between atoms: C_21  and  C_23
REMARK    9  A    between atoms: C_27  and  C_28
REMARK                            x       y       z     vdW  Elec       q    Type
REMARK                         _______ _______ _______ _____ _____    ______ ____
ROOT
ATOM      1  C   UNL     1      22.386   2.311  50.851  0.00  0.00    +0.000 C 
ATOM      2  O   UNL     1      21.342   1.939  50.319  0.00  0.00    +0.000 OA
ATOM      3  N   UNL     1      23.007   3.519  50.544  0.00  0.00    +0.000 N 
ATOM      4  C   UNL     1      22.377   4.381  49.526  0.00  0.00    +0.000 C 
ATOM      5  C   UNL     1      23.413   5.268  48.790  0.00  0.00    +0.000 C 
ATOM      6  N   UNL     1      24.170   6.017  49.814  0.00  0.00    +0.000 N 
ATOM      7  C   UNL     1      24.817   7.218  49.522  0.00  0.00    +0.000 A 
ATOM      8  N   UNL     1      26.096   7.350  49.967  0.00  0.00    +0.000 NA
ATOM      9  C   UNL     1      26.731   8.526  49.836  0.00  0.00    +0.000 A 
ATOM     10  C   UNL     1      26.183   9.612  49.199  0.00  0.00    +0.000 A 
ATOM     11  C   UNL     1      24.890   9.492  48.714  0.00  0.00    +0.000 A 
ATOM     12  C   UNL     1      24.134   8.330  48.944  0.00  0.00    +0.000 A 
ATOM     13  C   UNL     1      24.932   5.088  50.679  0.00  0.00    +0.000 C 
ATOM     14  C   UNL     1      23.916   4.241  51.458  0.00  0.00    +0.000 C 
ENDROOT
BRANCH   1  19
ATOM     15  C   UNL     1      24.201  -0.352  53.707  0.00  0.00    +0.000 A 
ATOM     16  C   UNL     1      22.821  -0.084  53.790  0.00  0.00    +0.000 A 
ATOM     17  C   UNL     1      21.844  -0.708  54.748  0.00  0.00    +0.000 C 
ATOM     18  C   UNL     1      22.253   0.818  52.866  0.00  0.00    +0.000 A 
ATOM     19  C   UNL     1      23.010   1.413  51.853  0.00  0.00    +0.000 A 
ATOM     20  C   UNL     1      24.377   1.184  51.802  0.00  0.00    +0.000 A 
ATOM     21  C   UNL     1      24.984   0.302  52.719  0.00  0.00    +0.000 A 
ATOM     22  C   UNL     1      26.463   0.077  52.557  0.00  0.00    +0.000 C 
BRANCH  15  24
ATOM     23  C   UNL     1      25.307  -0.762  55.828  0.00  0.00    +0.000 C 
ATOM     24  O   UNL     1      24.948  -1.163  54.520  0.00  0.00    +0.000 OA
ENDBRANCH  15  24
ENDBRANCH   1  19
BRANCH  12  25
ATOM     25  N   UNL     1      22.770   8.262  48.570  0.00  0.00    +0.000 N 
ATOM     26  H   UNL     1      22.509   7.845  47.717  0.00  0.00    +0.000 HD
BRANCH  25  27
ATOM     27  C   UNL     1      21.747   8.820  49.465  0.00  0.00    +0.000 C 
ATOM     28  C   UNL     1      21.088  10.014  48.776  0.00  0.00    +0.000 C 
ATOM     29  C   UNL     1      20.715   7.745  49.795  0.00  0.00    +0.000 C 
ENDBRANCH  25  27
ENDBRANCH  12  25
TORSDOF 4
ENDMDL
MODEL 9
REMARK VINA RESULT:    -7.429      4.887      8.644
REMARK INTER + INTRA:          -9.162
REMARK INTER:                  -8.695
REMARK INTRA:                  -0.468
REMARK UNBOUND:                 0.004
REMARK  Name = 
REMARK  9 active torsions:
REMARK  status: ('A' for Active; 'I' for Inactive)
REMARK    1  A    between atoms: C_1  and  O_2
REMARK    2  A    between atoms: O_2  and  C_3
REMARK    3  A    between atoms: C_4  and  C_5
REMARK    4  A    between atoms: C_7  and  C_8
REMARK    5  A    between atoms: C_19  and  N_20
REMARK    6  A    between atoms: N_20  and  C_21
REMARK    7  A    between atoms: C_21  and  C_22
REMARK    8  A    between atoms: C_21  and  C_23
REMARK    9  A    between atoms: C_27  and  C_28
REMARK                            x       y       z     vdW  Elec       q    Type
REMARK                         _______ _______ _______ _____ _____    ______ ____
ROOT
ATOM      1  C   UNL     1      26.398   5.150  49.114  0.00  0.00    +0.000 C 
ATOM      2  O   UNL     1      27.538   5.140  48.653  0.00  0.00    +0.000 OA
ATOM      3  N   UNL     1      25.910   4.151  49.952  0.00  0.00    +0.000 N 
ATOM      4  C   UNL     1      26.808   3.031  50.290  0.00  0.00    +0.000 C 
ATOM      5  C   UNL     1      26.028   1.728  50.598  0.00  0.00    +0.000 C 
ATOM      6  N   UNL     1      25.041   2.035  51.654  0.00  0.00    +0.000 N 
ATOM      7  C   UNL     1      24.524   1.047  52.491  0.00  0.00    +0.000 A 
ATOM      8  N   UNL     1      23.176   1.042  52.675  0.00  0.00    +0.000 NA
ATOM      9  C   UNL     1      22.626   0.203  53.567  0.00  0.00    +0.000 A 
ATOM     10  C   UNL     1      23.349  -0.727  54.273  0.00  0.00    +0.000 A 
ATOM     11  C   UNL     1      24.721  -0.759  54.081  0.00  0.00    +0.000 A 
ATOM     12  C   UNL     1      25.361   0.186  53.262  0.00  0.00    +0.000 A 
ATOM     13  C   UNL     1      24.055   3.027  51.170  0.00  0.00    +0.000 C 
ATOM     14  C   UNL     1      24.806   4.342  50.915  0.00  0.00    +0.000 C 
ENDROOT
BRANCH   1  19
ATOM     15  C   UNL     1      23.835   8.408  47.948  0.00  0.00    +0.000 A 
ATOM     16  C   UNL     1      25.064   8.685  48.578  0.00  0.00    +0.000 A 
ATOM     17  C   UNL     1      25.655  10.045  48.829  0.00  0.00    +0.000 C 
ATOM     18  C   UNL     1      25.873   7.601  48.983  0.00  0.00    +0.000 A 
ATOM     19  C   UNL     1      25.508   6.275  48.738  0.00  0.00    +0.000 A 
ATOM     20  C   UNL     1      24.277   6.004  48.159  0.00  0.00    +0.000 A 
ATOM     21  C   UNL     1      23.434   7.059  47.757  0.00  0.00    +0.000 A 
ATOM     22  C   UNL     1      22.140   6.671  47.095  0.00  0.00    +0.000 C 
BRANCH  15  24
ATOM     23  C   UNL     1      21.999   9.925  48.412  0.00  0.00    +0.000 C 
ATOM     24  O   UNL     1      22.897   9.306  47.511  0.00  0.00    +0.000 OA
ENDBRANCH  15  24
ENDBRANCH   1  19
BRANCH  12  25
ATOM     25  N   UNL     1      26.774   0.239  53.177  0.00  0.00    +0.000 N 
ATOM     26  H   UNL     1      27.244  -0.202  52.433  0.00  0.00    +0.000 HD
BRANCH  25  27
ATOM     27  C   UNL     1      27.533   0.957  54.210  0.00  0.00    +0.000 C 
ATOM     28  C   UNL     1      28.651   0.050  54.720  0.00  0.00    +0.000 C 
ATOM     29  C   UNL     1      28.104   2.246  53.621  0.00  0.00    +0.000 C 
ENDBRANCH  25  27
ENDBRANCH  12  25
TORSDOF 4
ENDMDL
