MODEL 1
REMARK VINA RESULT:    -6.699      0.000      0.000
REMARK INTER + INTRA:         -14.055
REMARK INTER:                 -11.594
REMARK INTRA:                  -2.461
REMARK UNBOUND:                -2.461
REMARK  Name = 
REMARK  15 active torsions:
REMARK  status: ('A' for Active; 'I' for Inactive)
REMARK    1  A    between atoms: C_1  and  C_2
REMARK    2  A    between atoms: C_2  and  C_3
REMARK    3  A    between atoms: C_3  and  C_4
REMARK    4  A    between atoms: C_4  and  C_5
REMARK    5  A    between atoms: C_5  and  C_6
REMARK    6  A    between atoms: C_6  and  O_7
REMARK    7  A    between atoms: C_6  and  C_8
REMARK    8  A    between atoms: C_12  and  O_13
REMARK    9  A    between atoms: O_13  and  C_14
REMARK   10  A    between atoms: C_14  and  C_15
REMARK   11  A    between atoms: C_18  and  O_19
REMARK   12  A    between atoms: O_19  and  C_20
REMARK   13  A    between atoms: C_20  and  C_21
REMARK   14  A    between atoms: C_21  and  O_23
REMARK   15  A    between atoms: O_23  and  C_24
REMARK                            x       y       z     vdW  Elec       q    Type
REMARK                         _______ _______ _______ _____ _____    ______ ____
ROOT
ATOM      1  C   UNL     1      22.358   5.630  51.232  0.00  0.00    +0.000 A 
ATOM      2  C   UNL     1      21.419   6.046  50.282  0.00  0.00    +0.000 A 
ATOM      3  C   UNL     1      20.259   5.303  50.089  0.00  0.00    +0.000 A 
ATOM      4  C   UNL     1      19.988   4.201  50.905  0.00  0.00    +0.000 A 
ATOM      5  C   UNL     1      20.819   3.894  51.984  0.00  0.00    +0.000 A 
ATOM      6  C   UNL     1      22.007   4.612  52.136  0.00  0.00    +0.000 A 
ENDROOT
BRANCH   1   7
ATOM      7  C   UNL     1      23.784   6.130  51.142  0.00  0.00    +0.000 C 
BRANCH   7   8
ATOM      8  O   UNL     1      24.222   6.582  52.421  0.00  0.00    +0.000 OA
ATOM      9  H   UNL     1      25.170   6.781  52.386  0.00  0.00    +0.000 HD
ENDBRANCH   7   8
BRANCH   7  10
ATOM     10  C   UNL     1      24.739   5.034  50.614  0.00  0.00    +0.000 C 
BRANCH  10  11
ATOM     11  C   UNL     1      24.399   4.442  49.235  0.00  0.00    +0.000 C 
BRANCH  11  12
ATOM     12  C   UNL     1      23.830   3.025  49.303  0.00  0.00    +0.000 C 
BRANCH  12  14
ATOM     13  C   UNL     1      21.863   1.558  48.741  0.00  0.00    +0.000 C 
ATOM     14  C   UNL     1      22.566   2.876  48.452  0.00  0.00    +0.000 C 
ENDBRANCH  12  14
ENDBRANCH  11  12
ENDBRANCH  10  11
ENDBRANCH   7  10
ENDBRANCH   1   7
BRANCH   5  15
ATOM     15  O   UNL     1      20.387   2.884  52.809  0.00  0.00    +0.000 OA
BRANCH  15  16
ATOM     16  C   UNL     1      20.557   1.555  52.305  0.00  0.00    +0.000 C 
BRANCH  16  17
ATOM     17  C   UNL     1      21.795   0.873  52.843  0.00  0.00    +0.000 A 
ATOM     18  C   UNL     1      21.662  -0.076  53.869  0.00  0.00    +0.000 A 
ATOM     19  C   UNL     1      22.778  -0.734  54.396  0.00  0.00    +0.000 A 
ATOM     20  C   UNL     1      24.047  -0.474  53.889  0.00  0.00    +0.000 A 
ATOM     21  C   UNL     1      24.181   0.422  52.823  0.00  0.00    +0.000 A 
ATOM     22  C   UNL     1      23.065   1.084  52.295  0.00  0.00    +0.000 A 
BRANCH  20  23
ATOM     23  O   UNL     1      25.217  -0.988  54.375  0.00  0.00    +0.000 OA
BRANCH  23  24
ATOM     24  C   UNL     1      26.299  -0.088  54.576  0.00  0.00    +0.000 C 
BRANCH  24  25
ATOM     25  C   UNL     1      27.530  -0.216  53.681  0.00  0.00    +0.000 C 
ATOM     26  O   UNL     1      27.544  -0.300  52.451  0.00  0.00    +0.000 OA
BRANCH  25  27
ATOM     27  O   UNL     1      28.649  -0.204  54.471  0.00  0.00    +0.000 OA
ATOM     28  C   UNL     1      29.808  -0.803  53.888  0.00  0.00    +0.000 C 
ENDBRANCH  25  27
ENDBRANCH  24  25
ENDBRANCH  23  24
ENDBRANCH  20  23
ENDBRANCH  16  17
ENDBRANCH  15  16
ENDBRANCH   5  15
TORSDOF 13
ENDMDL
MODEL 2
REMARK VINA RESULT:    -6.625      1.807      2.658
REMARK INTER + INTRA:         -13.927
REMARK INTER:                 -11.953
REMARK INTRA:                  -1.975
REMARK UNBOUND:                -2.461
REMARK  Name = 
REMARK  15 active torsions:
REMARK  status: ('A' for Active; 'I' for Inactive)
REMARK    1  A    between atoms: C_1  and  C_2
REMARK    2  A    between atoms: C_2  and  C_3
REMARK    3  A    between atoms: C_3  and  C_4
REMARK    4  A    between atoms: C_4  and  C_5
REMARK    5  A    between atoms: C_5  and  C_6
REMARK    6  A    between atoms: C_6  and  O_7
REMARK    7  A    between atoms: C_6  and  C_8
REMARK    8  A    between atoms: C_12  and  O_13
REMARK    9  A    between atoms: O_13  and  C_14
REMARK   10  A    between atoms: C_14  and  C_15
REMARK   11  A    between atoms: C_18  and  O_19
REMARK   12  A    between atoms: O_19  and  C_20
REMARK   13  A    between atoms: C_20  and  C_21
REMARK   14  A    between atoms: C_21  and  O_23
REMARK   15  A    between atoms: O_23  and  C_24
REMARK                            x       y       z     vdW  Elec       q    Type
REMARK                         _______ _______ _______ _____ _____    ______ ____
ROOT
ATOM      1  C   UNL     1      24.162   7.496  50.479  0.00  0.00    +0.000 A 
ATOM      2  C   UNL     1      22.979   7.847  49.822  0.00  0.00    +0.000 A 
ATOM      3  C   UNL     1      21.843   7.059  49.981  0.00  0.00    +0.000 A 
ATOM      4  C   UNL     1      21.858   5.976  50.866  0.00  0.00    +0.000 A 
ATOM      5  C   UNL     1      22.970   5.735  51.674  0.00  0.00    +0.000 A 
ATOM      6  C   UNL     1      24.122   6.498  51.469  0.00  0.00    +0.000 A 
ENDROOT
BRANCH   1   7
ATOM      7  C   UNL     1      25.484   8.039  49.980  0.00  0.00    +0.000 C 
BRANCH   7   8
ATOM      8  O   UNL     1      26.480   7.897  50.989  0.00  0.00    +0.000 OA
ATOM      9  H   UNL     1      26.141   7.329  51.699  0.00  0.00    +0.000 HD
ENDBRANCH   7   8
BRANCH   7  10
ATOM     10  C   UNL     1      25.939   7.329  48.684  0.00  0.00    +0.000 C 
BRANCH  10  11
ATOM     11  C   UNL     1      25.683   5.813  48.612  0.00  0.00    +0.000 C 
BRANCH  11  12
ATOM     12  C   UNL     1      26.905   4.970  48.976  0.00  0.00    +0.000 C 
BRANCH  12  14
ATOM     13  C   UNL     1      24.999   3.394  49.444  0.00  0.00    +0.000 C 
ATOM     14  C   UNL     1      26.511   3.564  49.438  0.00  0.00    +0.000 C 
ENDBRANCH  12  14
ENDBRANCH  11  12
ENDBRANCH  10  11
ENDBRANCH   7  10
ENDBRANCH   1   7
BRANCH   5  15
ATOM     15  O   UNL     1      22.830   4.740  52.611  0.00  0.00    +0.000 OA
BRANCH  15  16
ATOM     16  C   UNL     1      22.484   3.449  52.099  0.00  0.00    +0.000 C 
BRANCH  16  17
ATOM     17  C   UNL     1      23.422   2.357  52.566  0.00  0.00    +0.000 A 
ATOM     18  C   UNL     1      24.656   2.712  53.132  0.00  0.00    +0.000 A 
ATOM     19  C   UNL     1      25.554   1.738  53.581  0.00  0.00    +0.000 A 
ATOM     20  C   UNL     1      25.222   0.390  53.495  0.00  0.00    +0.000 A 
ATOM     21  C   UNL     1      23.968   0.030  52.992  0.00  0.00    +0.000 A 
ATOM     22  C   UNL     1      23.067   1.004  52.540  0.00  0.00    +0.000 A 
BRANCH  20  23
ATOM     23  O   UNL     1      26.046  -0.652  53.821  0.00  0.00    +0.000 OA
BRANCH  23  24
ATOM     24  C   UNL     1      27.158  -0.902  52.972  0.00  0.00    +0.000 C 
BRANCH  24  25
ATOM     25  C   UNL     1      28.556  -0.924  53.586  0.00  0.00    +0.000 C 
ATOM     26  O   UNL     1      29.520  -1.590  53.204  0.00  0.00    +0.000 OA
BRANCH  25  27
ATOM     27  O   UNL     1      28.583  -0.055  54.645  0.00  0.00    +0.000 OA
ATOM     28  C   UNL     1      29.183   1.212  54.372  0.00  0.00    +0.000 C 
ENDBRANCH  25  27
ENDBRANCH  24  25
ENDBRANCH  23  24
ENDBRANCH  20  23
ENDBRANCH  16  17
ENDBRANCH  15  16
ENDBRANCH   5  15
TORSDOF 13
ENDMDL
MODEL 3
REMARK VINA RESULT:    -6.572      4.595      8.592
REMARK INTER + INTRA:         -13.835
REMARK INTER:                 -12.521
REMARK INTRA:                  -1.314
REMARK UNBOUND:                -2.461
REMARK  Name = 
REMARK  15 active torsions:
REMARK  status: ('A' for Active; 'I' for Inactive)
REMARK    1  A    between atoms: C_1  and  C_2
REMARK    2  A    between atoms: C_2  and  C_3
REMARK    3  A    between atoms: C_3  and  C_4
REMARK    4  A    between atoms: C_4  and  C_5
REMARK    5  A    between atoms: C_5  and  C_6
REMARK    6  A    between atoms: C_6  and  O_7
REMARK    7  A    between atoms: C_6  and  C_8
REMARK    8  A    between atoms: C_12  and  O_13
REMARK    9  A    between atoms: O_13  and  C_14
REMARK   10  A    between atoms: C_14  and  C_15
REMARK   11  A    between atoms: C_18  and  O_19
REMARK   12  A    between atoms: O_19  and  C_20
REMARK   13  A    between atoms: C_20  and  C_21
REMARK   14  A    between atoms: C_21  and  O_23
REMARK   15  A    between atoms: O_23  and  C_24
REMARK                            x       y       z     vdW  Elec       q    Type
REMARK                         _______ _______ _______ _____ _____    ______ ____
ROOT
ATOM      1  C   UNL     1      26.587   1.674  52.554  0.00  0.00    +0.000 A 
ATOM      2  C   UNL     1      25.402   1.114  53.040  0.00  0.00    +0.000 A 
ATOM      3  C   UNL     1      24.188   1.446  52.446  0.00  0.00    +0.000 A 
ATOM      4  C   UNL     1      24.163   2.261  51.310  0.00  0.00    +0.000 A 
ATOM      5  C   UNL     1      25.352   2.664  50.699  0.00  0.00    +0.000 A 
ATOM      6  C   UNL     1      26.561   2.371  51.333  0.00  0.00    +0.000 A 
ENDROOT
BRANCH   1   7
ATOM      7  C   UNL     1      27.818   1.699  53.434  0.00  0.00    +0.000 C 
BRANCH   7   8
ATOM      8  O   UNL     1      27.911   2.953  54.104  0.00  0.00    +0.000 OA
ATOM      9  H   UNL     1      27.428   3.626  53.599  0.00  0.00    +0.000 HD
ENDBRANCH   7   8
BRANCH   7  10
ATOM     10  C   UNL     1      27.804   0.549  54.467  0.00  0.00    +0.000 C 
BRANCH  10  11
ATOM     11  C   UNL     1      29.053  -0.350  54.504  0.00  0.00    +0.000 C 
BRANCH  11  12
ATOM     12  C   UNL     1      29.288  -1.123  53.207  0.00  0.00    +0.000 C 
BRANCH  12  14
ATOM     13  C   UNL     1      27.156  -2.207  52.424  0.00  0.00    +0.000 C 
ATOM     14  C   UNL     1      28.472  -2.417  53.158  0.00  0.00    +0.000 C 
ENDBRANCH  12  14
ENDBRANCH  11  12
ENDBRANCH  10  11
ENDBRANCH   7  10
ENDBRANCH   1   7
BRANCH   5  15
ATOM     15  O   UNL     1      25.219   3.339  49.509  0.00  0.00    +0.000 OA
BRANCH  15  16
ATOM     16  C   UNL     1      25.172   4.766  49.605  0.00  0.00    +0.000 C 
BRANCH  16  17
ATOM     17  C   UNL     1      26.432   5.433  49.098  0.00  0.00    +0.000 A 
ATOM     18  C   UNL     1      26.507   6.835  49.090  0.00  0.00    +0.000 A 
ATOM     19  C   UNL     1      27.652   7.496  48.633  0.00  0.00    +0.000 A 
ATOM     20  C   UNL     1      28.753   6.766  48.199  0.00  0.00    +0.000 A 
ATOM     21  C   UNL     1      28.711   5.370  48.264  0.00  0.00    +0.000 A 
ATOM     22  C   UNL     1      27.565   4.705  48.720  0.00  0.00    +0.000 A 
BRANCH  20  23
ATOM     23  O   UNL     1      29.891   7.295  47.654  0.00  0.00    +0.000 OA
BRANCH  23  24
ATOM     24  C   UNL     1      30.891   7.766  48.546  0.00  0.00    +0.000 C 
BRANCH  24  25
ATOM     25  C   UNL     1      31.005   9.270  48.789  0.00  0.00    +0.000 C 
ATOM     26  O   UNL     1      30.715   9.876  49.822  0.00  0.00    +0.000 OA
BRANCH  25  27
ATOM     27  O   UNL     1      31.510   9.859  47.659  0.00  0.00    +0.000 OA
ATOM     28  C   UNL     1      31.476  11.286  47.654  0.00  0.00    +0.000 C 
ENDBRANCH  25  27
ENDBRANCH  24  25
ENDBRANCH  23  24
ENDBRANCH  20  23
ENDBRANCH  16  17
ENDBRANCH  15  16
ENDBRANCH   5  15
TORSDOF 13
ENDMDL
MODEL 4
REMARK VINA RESULT:    -6.507      3.421      8.209
REMARK INTER + INTRA:         -13.724
REMARK INTER:                 -12.330
REMARK INTRA:                  -1.394
REMARK UNBOUND:                -2.461
REMARK  Name = 
REMARK  15 active torsions:
REMARK  status: ('A' for Active; 'I' for Inactive)
REMARK    1  A    between atoms: C_1  and  C_2
REMARK    2  A    between atoms: C_2  and  C_3
REMARK    3  A    between atoms: C_3  and  C_4
REMARK    4  A    between atoms: C_4  and  C_5
REMARK    5  A    between atoms: C_5  and  C_6
REMARK    6  A    between atoms: C_6  and  O_7
REMARK    7  A    between atoms: C_6  and  C_8
REMARK    8  A    between atoms: C_12  and  O_13
REMARK    9  A    between atoms: O_13  and  C_14
REMARK   10  A    between atoms: C_14  and  C_15
REMARK   11  A    between atoms: C_18  and  O_19
REMARK   12  A    between atoms: O_19  and  C_20
REMARK   13  A    between atoms: C_20  and  C_21
REMARK   14  A    between atoms: C_21  and  O_23
REMARK   15  A    between atoms: O_23  and  C_24
REMARK                            x       y       z     vdW  Elec       q    Type
REMARK                         _______ _______ _______ _____ _____    ______ ____
ROOT
ATOM      1  C   UNL     1      24.977   0.315  53.075  0.00  0.00    +0.000 A 
ATOM      2  C   UNL     1      23.619   0.035  53.263  0.00  0.00    +0.000 A 
ATOM      3  C   UNL     1      22.661   0.930  52.798  0.00  0.00    +0.000 A 
ATOM      4  C   UNL     1      23.048   2.055  52.065  0.00  0.00    +0.000 A 
ATOM      5  C   UNL     1      24.383   2.241  51.702  0.00  0.00    +0.000 A 
ATOM      6  C   UNL     1      25.343   1.367  52.218  0.00  0.00    +0.000 A 
ENDROOT
BRANCH   1   7
ATOM      7  C   UNL     1      26.009  -0.373  53.942  0.00  0.00    +0.000 C 
BRANCH   7   8
ATOM      8  O   UNL     1      25.363  -1.107  54.979  0.00  0.00    +0.000 OA
ATOM      9  H   UNL     1      25.967  -1.203  55.731  0.00  0.00    +0.000 HD
ENDBRANCH   7   8
BRANCH   7  10
ATOM     10  C   UNL     1      26.912  -1.315  53.112  0.00  0.00    +0.000 C 
BRANCH  10  11
ATOM     11  C   UNL     1      28.430  -1.108  53.260  0.00  0.00    +0.000 C 
BRANCH  11  12
ATOM     12  C   UNL     1      28.805  -0.075  54.323  0.00  0.00    +0.000 C 
BRANCH  12  14
ATOM     13  C   UNL     1      28.600   2.362  53.729  0.00  0.00    +0.000 C 
ATOM     14  C   UNL     1      29.508   1.141  53.713  0.00  0.00    +0.000 C 
ENDBRANCH  12  14
ENDBRANCH  11  12
ENDBRANCH  10  11
ENDBRANCH   7  10
ENDBRANCH   1   7
BRANCH   5  15
ATOM     15  O   UNL     1      24.637   3.297  50.860  0.00  0.00    +0.000 OA
BRANCH  15  16
ATOM     16  C   UNL     1      25.647   3.075  49.871  0.00  0.00    +0.000 C 
BRANCH  16  17
ATOM     17  C   UNL     1      26.157   4.357  49.249  0.00  0.00    +0.000 A 
ATOM     18  C   UNL     1      25.276   5.438  49.091  0.00  0.00    +0.000 A 
ATOM     19  C   UNL     1      25.703   6.643  48.525  0.00  0.00    +0.000 A 
ATOM     20  C   UNL     1      27.028   6.798  48.128  0.00  0.00    +0.000 A 
ATOM     21  C   UNL     1      27.927   5.749  48.341  0.00  0.00    +0.000 A 
ATOM     22  C   UNL     1      27.501   4.540  48.908  0.00  0.00    +0.000 A 
BRANCH  20  23
ATOM     23  O   UNL     1      27.541   7.893  47.489  0.00  0.00    +0.000 OA
BRANCH  23  24
ATOM     24  C   UNL     1      27.430   9.150  48.142  0.00  0.00    +0.000 C 
BRANCH  24  25
ATOM     25  C   UNL     1      28.044   9.308  49.531  0.00  0.00    +0.000 C 
ATOM     26  O   UNL     1      27.441   9.341  50.606  0.00  0.00    +0.000 OA
BRANCH  25  27
ATOM     27  O   UNL     1      29.406   9.391  49.402  0.00  0.00    +0.000 OA
ATOM     28  C   UNL     1      29.863  10.297  48.396  0.00  0.00    +0.000 C 
ENDBRANCH  25  27
ENDBRANCH  24  25
ENDBRANCH  23  24
ENDBRANCH  20  23
ENDBRANCH  16  17
ENDBRANCH  15  16
ENDBRANCH   5  15
TORSDOF 13
ENDMDL
MODEL 5
REMARK VINA RESULT:    -6.322      1.934      6.663
REMARK INTER + INTRA:         -13.403
REMARK INTER:                 -11.562
REMARK INTRA:                  -1.841
REMARK UNBOUND:                -2.461
REMARK  Name = 
REMARK  15 active torsions:
REMARK  status: ('A' for Active; 'I' for Inactive)
REMARK    1  A    between atoms: C_1  and  C_2
REMARK    2  A    between atoms: C_2  and  C_3
REMARK    3  A    between atoms: C_3  and  C_4
REMARK    4  A    between atoms: C_4  and  C_5
REMARK    5  A    between atoms: C_5  and  C_6
REMARK    6  A    between atoms: C_6  and  O_7
REMARK    7  A    between atoms: C_6  and  C_8
REMARK    8  A    between atoms: C_12  and  O_13
REMARK    9  A    between atoms: O_13  and  C_14
REMARK   10  A    between atoms: C_14  and  C_15
REMARK   11  A    between atoms: C_18  and  O_19
REMARK   12  A    between atoms: O_19  and  C_20
REMARK   13  A    between atoms: C_20  and  C_21
REMARK   14  A    between atoms: C_21  and  O_23
REMARK   15  A    between atoms: O_23  and  C_24
REMARK                            x       y       z     vdW  Elec       q    Type
REMARK                         _______ _______ _______ _____ _____    ______ ____
ROOT
ATOM      1  C   UNL     1      23.759  -0.526  53.814  0.00  0.00    +0.000 A 
ATOM      2  C   UNL     1      22.964  -1.123  54.798  0.00  0.00    +0.000 A 
ATOM      3  C   UNL     1      21.583  -0.962  54.758  0.00  0.00    +0.000 A 
ATOM      4  C   UNL     1      20.985  -0.288  53.689  0.00  0.00    +0.000 A 
ATOM      5  C   UNL     1      21.750   0.139  52.602  0.00  0.00    +0.000 A 
ATOM      6  C   UNL     1      23.140   0.021  52.677  0.00  0.00    +0.000 A 
ENDROOT
BRANCH   1   7
ATOM      7  C   UNL     1      25.232  -0.298  54.079  0.00  0.00    +0.000 C 
BRANCH   7   8
ATOM      8  O   UNL     1      25.655  -1.090  55.185  0.00  0.00    +0.000 OA
ATOM      9  H   UNL     1      25.594  -2.030  54.951  0.00  0.00    +0.000 HD
ENDBRANCH   7   8
BRANCH   7  10
ATOM     10  C   UNL     1      26.091  -0.625  52.835  0.00  0.00    +0.000 C 
BRANCH  10  11
ATOM     11  C   UNL     1      26.834   0.558  52.190  0.00  0.00    +0.000 C 
BRANCH  11  12
ATOM     12  C   UNL     1      26.805   1.831  53.035  0.00  0.00    +0.000 C 
BRANCH  12  14
ATOM     13  C   UNL     1      29.006   1.312  54.141  0.00  0.00    +0.000 C 
ATOM     14  C   UNL     1      28.215   2.341  53.347  0.00  0.00    +0.000 C 
ENDBRANCH  12  14
ENDBRANCH  11  12
ENDBRANCH  10  11
ENDBRANCH   7  10
ENDBRANCH   1   7
BRANCH   5  15
ATOM     15  O   UNL     1      21.050   0.659  51.540  0.00  0.00    +0.000 OA
BRANCH  15  16
ATOM     16  C   UNL     1      20.970   2.087  51.487  0.00  0.00    +0.000 C 
BRANCH  16  17
ATOM     17  C   UNL     1      22.293   2.740  51.151  0.00  0.00    +0.000 A 
ATOM     18  C   UNL     1      22.914   3.560  52.107  0.00  0.00    +0.000 A 
ATOM     19  C   UNL     1      24.138   4.182  51.842  0.00  0.00    +0.000 A 
ATOM     20  C   UNL     1      24.777   3.976  50.624  0.00  0.00    +0.000 A 
ATOM     21  C   UNL     1      24.197   3.110  49.691  0.00  0.00    +0.000 A 
ATOM     22  C   UNL     1      22.970   2.486  49.953  0.00  0.00    +0.000 A 
BRANCH  20  23
ATOM     23  O   UNL     1      25.928   4.592  50.217  0.00  0.00    +0.000 OA
BRANCH  23  24
ATOM     24  C   UNL     1      25.812   5.650  49.277  0.00  0.00    +0.000 C 
BRANCH  24  25
ATOM     25  C   UNL     1      25.516   7.057  49.793  0.00  0.00    +0.000 C 
ATOM     26  O   UNL     1      26.316   7.834  50.320  0.00  0.00    +0.000 OA
BRANCH  25  27
ATOM     27  O   UNL     1      24.197   7.342  49.559  0.00  0.00    +0.000 OA
ATOM     28  C   UNL     1      23.438   7.686  50.719  0.00  0.00    +0.000 C 
ENDBRANCH  25  27
ENDBRANCH  24  25
ENDBRANCH  23  24
ENDBRANCH  20  23
ENDBRANCH  16  17
ENDBRANCH  15  16
ENDBRANCH   5  15
TORSDOF 13
ENDMDL
MODEL 6
REMARK VINA RESULT:    -6.287      2.265      6.905
REMARK INTER + INTRA:         -13.342
REMARK INTER:                 -12.022
REMARK INTRA:                  -1.320
REMARK UNBOUND:                -2.461
REMARK  Name = 
REMARK  15 active torsions:
REMARK  status: ('A' for Active; 'I' for Inactive)
REMARK    1  A    between atoms: C_1  and  C_2
REMARK    2  A    between atoms: C_2  and  C_3
REMARK    3  A    between atoms: C_3  and  C_4
REMARK    4  A    between atoms: C_4  and  C_5
REMARK    5  A    between atoms: C_5  and  C_6
REMARK    6  A    between atoms: C_6  and  O_7
REMARK    7  A    between atoms: C_6  and  C_8
REMARK    8  A    between atoms: C_12  and  O_13
REMARK    9  A    between atoms: O_13  and  C_14
REMARK   10  A    between atoms: C_14  and  C_15
REMARK   11  A    between atoms: C_18  and  O_19
REMARK   12  A    between atoms: O_19  and  C_20
REMARK   13  A    between atoms: C_20  and  C_21
REMARK   14  A    between atoms: C_21  and  O_23
REMARK   15  A    between atoms: O_23  and  C_24
REMARK                            x       y       z     vdW  Elec       q    Type
REMARK                         _______ _______ _______ _____ _____    ______ ____
ROOT
ATOM      1  C   UNL     1      23.785  -0.408  53.971  0.00  0.00    +0.000 A 
ATOM      2  C   UNL     1      22.874  -1.064  54.805  0.00  0.00    +0.000 A 
ATOM      3  C   UNL     1      21.526  -0.721  54.758  0.00  0.00    +0.000 A 
ATOM      4  C   UNL     1      21.071   0.209  53.818  0.00  0.00    +0.000 A 
ATOM      5  C   UNL     1      21.937   0.723  52.851  0.00  0.00    +0.000 A 
ATOM      6  C   UNL     1      23.296   0.413  52.940  0.00  0.00    +0.000 A 
ENDROOT
BRANCH   1   7
ATOM      7  C   UNL     1      25.259  -0.426  54.314  0.00  0.00    +0.000 C 
BRANCH   7   8
ATOM      8  O   UNL     1      25.459  -1.071  55.568  0.00  0.00    +0.000 OA
ATOM      9  H   UNL     1      24.988  -1.919  55.574  0.00  0.00    +0.000 HD
ENDBRANCH   7   8
BRANCH   7  10
ATOM     10  C   UNL     1      26.089  -1.133  53.218  0.00  0.00    +0.000 C 
BRANCH  10  11
ATOM     11  C   UNL     1      27.122  -0.265  52.478  0.00  0.00    +0.000 C 
BRANCH  11  12
ATOM     12  C   UNL     1      27.880   0.695  53.394  0.00  0.00    +0.000 C 
BRANCH  12  14
ATOM     13  C   UNL     1      29.850  -0.867  53.519  0.00  0.00    +0.000 C 
ATOM     14  C   UNL     1      28.850  -0.045  54.319  0.00  0.00    +0.000 C 
ENDBRANCH  12  14
ENDBRANCH  11  12
ENDBRANCH  10  11
ENDBRANCH   7  10
ENDBRANCH   1   7
BRANCH   5  15
ATOM     15  O   UNL     1      21.360   1.513  51.886  0.00  0.00    +0.000 OA
BRANCH  15  16
ATOM     16  C   UNL     1      21.259   2.906  52.202  0.00  0.00    +0.000 C 
BRANCH  16  17
ATOM     17  C   UNL     1      22.408   3.721  51.651  0.00  0.00    +0.000 A 
ATOM     18  C   UNL     1      23.027   3.314  50.459  0.00  0.00    +0.000 A 
ATOM     19  C   UNL     1      24.090   4.037  49.910  0.00  0.00    +0.000 A 
ATOM     20  C   UNL     1      24.540   5.198  50.532  0.00  0.00    +0.000 A 
ATOM     21  C   UNL     1      23.888   5.646  51.685  0.00  0.00    +0.000 A 
ATOM     22  C   UNL     1      22.823   4.922  52.238  0.00  0.00    +0.000 A 
BRANCH  20  23
ATOM     23  O   UNL     1      25.619   5.941  50.141  0.00  0.00    +0.000 OA
BRANCH  23  24
ATOM     24  C   UNL     1      26.009   5.867  48.776  0.00  0.00    +0.000 C 
BRANCH  24  25
ATOM     25  C   UNL     1      27.495   5.967  48.435  0.00  0.00    +0.000 C 
ATOM     26  O   UNL     1      28.337   5.073  48.536  0.00  0.00    +0.000 OA
BRANCH  25  27
ATOM     27  O   UNL     1      27.753   7.229  47.968  0.00  0.00    +0.000 OA
ATOM     28  C   UNL     1      27.980   8.212  48.978  0.00  0.00    +0.000 C 
ENDBRANCH  25  27
ENDBRANCH  24  25
ENDBRANCH  23  24
ENDBRANCH  20  23
ENDBRANCH  16  17
ENDBRANCH  15  16
ENDBRANCH   5  15
TORSDOF 13
ENDMDL
MODEL 7
REMARK VINA RESULT:    -6.224      1.576      2.660
REMARK INTER + INTRA:         -13.233
REMARK INTER:                 -11.069
REMARK INTRA:                  -2.164
REMARK UNBOUND:                -2.461
REMARK  Name = 
REMARK  15 active torsions:
REMARK  status: ('A' for Active; 'I' for Inactive)
REMARK    1  A    between atoms: C_1  and  C_2
REMARK    2  A    between atoms: C_2  and  C_3
REMARK    3  A    between atoms: C_3  and  C_4
REMARK    4  A    between atoms: C_4  and  C_5
REMARK    5  A    between atoms: C_5  and  C_6
REMARK    6  A    between atoms: C_6  and  O_7
REMARK    7  A    between atoms: C_6  and  C_8
REMARK    8  A    between atoms: C_12  and  O_13
REMARK    9  A    between atoms: O_13  and  C_14
REMARK   10  A    between atoms: C_14  and  C_15
REMARK   11  A    between atoms: C_18  and  O_19
REMARK   12  A    between atoms: O_19  and  C_20
REMARK   13  A    between atoms: C_20  and  C_21
REMARK   14  A    between atoms: C_21  and  O_23
REMARK   15  A    between atoms: O_23  and  C_24
REMARK                            x       y       z     vdW  Elec       q    Type
REMARK                         _______ _______ _______ _____ _____    ______ ____
ROOT
ATOM      1  C   UNL     1      21.343   3.528  49.057  0.00  0.00    +0.000 A 
ATOM      2  C   UNL     1      21.648   2.563  48.093  0.00  0.00    +0.000 A 
ATOM      3  C   UNL     1      21.617   1.214  48.435  0.00  0.00    +0.000 A 
ATOM      4  C   UNL     1      21.192   0.823  49.708  0.00  0.00    +0.000 A 
ATOM      5  C   UNL     1      20.696   1.764  50.612  0.00  0.00    +0.000 A 
ATOM      6  C   UNL     1      20.782   3.118  50.279  0.00  0.00    +0.000 A 
ENDROOT
BRANCH   1   7
ATOM      7  C   UNL     1      21.802   4.957  48.856  0.00  0.00    +0.000 C 
BRANCH   7   8
ATOM      8  O   UNL     1      21.372   5.764  49.949  0.00  0.00    +0.000 OA
ATOM      9  H   UNL     1      21.753   6.652  49.865  0.00  0.00    +0.000 HD
ENDBRANCH   7   8
BRANCH   7  10
ATOM     10  C   UNL     1      23.338   5.045  48.707  0.00  0.00    +0.000 C 
BRANCH  10  11
ATOM     11  C   UNL     1      24.168   4.579  49.916  0.00  0.00    +0.000 C 
BRANCH  11  12
ATOM     12  C   UNL     1      25.047   3.363  49.621  0.00  0.00    +0.000 C 
BRANCH  12  14
ATOM     13  C   UNL     1      27.113   4.628  48.937  0.00  0.00    +0.000 C 
ATOM     14  C   UNL     1      26.522   3.637  49.929  0.00  0.00    +0.000 C 
ENDBRANCH  12  14
ENDBRANCH  11  12
ENDBRANCH  10  11
ENDBRANCH   7  10
ENDBRANCH   1   7
BRANCH   5  15
ATOM     15  O   UNL     1      20.170   1.262  51.778  0.00  0.00    +0.000 OA
BRANCH  15  16
ATOM     16  C   UNL     1      20.825   1.670  52.983  0.00  0.00    +0.000 C 
BRANCH  16  17
ATOM     17  C   UNL     1      22.252   1.178  53.075  0.00  0.00    +0.000 A 
ATOM     18  C   UNL     1      22.492  -0.181  53.335  0.00  0.00    +0.000 A 
ATOM     19  C   UNL     1      23.795  -0.682  53.426  0.00  0.00    +0.000 A 
ATOM     20  C   UNL     1      24.883   0.163  53.232  0.00  0.00    +0.000 A 
ATOM     21  C   UNL     1      24.653   1.504  52.909  0.00  0.00    +0.000 A 
ATOM     22  C   UNL     1      23.349   2.009  52.819  0.00  0.00    +0.000 A 
BRANCH  20  23
ATOM     23  O   UNL     1      26.197  -0.190  53.378  0.00  0.00    +0.000 OA
BRANCH  23  24
ATOM     24  C   UNL     1      26.901   0.341  54.492  0.00  0.00    +0.000 C 
BRANCH  24  25
ATOM     25  C   UNL     1      28.284   0.946  54.261  0.00  0.00    +0.000 C 
ATOM     26  O   UNL     1      28.536   2.058  53.793  0.00  0.00    +0.000 OA
BRANCH  25  27
ATOM     27  O   UNL     1      29.231   0.048  54.680  0.00  0.00    +0.000 OA
ATOM     28  C   UNL     1      29.697  -0.853  53.675  0.00  0.00    +0.000 C 
ENDBRANCH  25  27
ENDBRANCH  24  25
ENDBRANCH  23  24
ENDBRANCH  20  23
ENDBRANCH  16  17
ENDBRANCH  15  16
ENDBRANCH   5  15
TORSDOF 13
ENDMDL
MODEL 8
REMARK VINA RESULT:    -6.119      3.539      7.760
REMARK INTER + INTRA:         -13.051
REMARK INTER:                 -11.643
REMARK INTRA:                  -1.408
REMARK UNBOUND:                -2.461
REMARK  Name = 
REMARK  15 active torsions:
REMARK  status: ('A' for Active; 'I' for Inactive)
REMARK    1  A    between atoms: C_1  and  C_2
REMARK    2  A    between atoms: C_2  and  C_3
REMARK    3  A    between atoms: C_3  and  C_4
REMARK    4  A    between atoms: C_4  and  C_5
REMARK    5  A    between atoms: C_5  and  C_6
REMARK    6  A    between atoms: C_6  and  O_7
REMARK    7  A    between atoms: C_6  and  C_8
REMARK    8  A    between atoms: C_12  and  O_13
REMARK    9  A    between atoms: O_13  and  C_14
REMARK   10  A    between atoms: C_14  and  C_15
REMARK   11  A    between atoms: C_18  and  O_19
REMARK   12  A    between atoms: O_19  and  C_20
REMARK   13  A    between atoms: C_20  and  C_21
REMARK   14  A    between atoms: C_21  and  O_23
REMARK   15  A    between atoms: O_23  and  C_24
REMARK                            x       y       z     vdW  Elec       q    Type
REMARK                         _______ _______ _______ _____ _____    ______ ____
ROOT
ATOM      1  C   UNL     1      24.676  -0.224  53.687  0.00  0.00    +0.000 A 
ATOM      2  C   UNL     1      25.865  -0.833  53.271  0.00  0.00    +0.000 A 
ATOM      3  C   UNL     1      26.634  -0.235  52.278  0.00  0.00    +0.000 A 
ATOM      4  C   UNL     1      26.270   1.014  51.765  0.00  0.00    +0.000 A 
ATOM      5  C   UNL     1      25.198   1.721  52.311  0.00  0.00    +0.000 A 
ATOM      6  C   UNL     1      24.402   1.090  53.270  0.00  0.00    +0.000 A 
ENDROOT
BRANCH   1   7
ATOM      7  C   UNL     1      23.624  -1.046  54.400  0.00  0.00    +0.000 C 
BRANCH   7   8
ATOM      8  O   UNL     1      24.096  -1.427  55.690  0.00  0.00    +0.000 OA
ATOM      9  H   UNL     1      24.815  -0.833  55.959  0.00  0.00    +0.000 HD
ENDBRANCH   7   8
BRANCH   7  10
ATOM     10  C   UNL     1      22.291  -0.274  54.531  0.00  0.00    +0.000 C 
BRANCH  10  11
ATOM     11  C   UNL     1      21.156  -0.709  53.588  0.00  0.00    +0.000 C 
BRANCH  11  12
ATOM     12  C   UNL     1      21.007   0.186  52.358  0.00  0.00    +0.000 C 
BRANCH  12  14
ATOM     13  C   UNL     1      21.281   2.675  52.100  0.00  0.00    +0.000 C 
ATOM     14  C   UNL     1      20.447   1.564  52.720  0.00  0.00    +0.000 C 
ENDBRANCH  12  14
ENDBRANCH  11  12
ENDBRANCH  10  11
ENDBRANCH   7  10
ENDBRANCH   1   7
BRANCH   5  15
ATOM     15  O   UNL     1      25.014   2.998  51.837  0.00  0.00    +0.000 OA
BRANCH  15  16
ATOM     16  C   UNL     1      24.718   3.105  50.441  0.00  0.00    +0.000 C 
BRANCH  16  17
ATOM     17  C   UNL     1      25.565   4.142  49.736  0.00  0.00    +0.000 A 
ATOM     18  C   UNL     1      26.885   3.820  49.381  0.00  0.00    +0.000 A 
ATOM     19  C   UNL     1      27.704   4.745  48.726  0.00  0.00    +0.000 A 
ATOM     20  C   UNL     1      27.210   6.001  48.390  0.00  0.00    +0.000 A 
ATOM     21  C   UNL     1      25.877   6.307  48.681  0.00  0.00    +0.000 A 
ATOM     22  C   UNL     1      25.054   5.382  49.339  0.00  0.00    +0.000 A 
BRANCH  20  23
ATOM     23  O   UNL     1      27.936   7.015  47.827  0.00  0.00    +0.000 OA
BRANCH  23  24
ATOM     24  C   UNL     1      28.142   8.187  48.604  0.00  0.00    +0.000 C 
BRANCH  24  25
ATOM     25  C   UNL     1      29.569   8.557  49.002  0.00  0.00    +0.000 C 
ATOM     26  O   UNL     1      29.951   9.634  49.466  0.00  0.00    +0.000 OA
BRANCH  25  27
ATOM     27  O   UNL     1      30.382   7.477  48.777  0.00  0.00    +0.000 OA
ATOM     28  C   UNL     1      31.766   7.695  49.050  0.00  0.00    +0.000 C 
ENDBRANCH  25  27
ENDBRANCH  24  25
ENDBRANCH  23  24
ENDBRANCH  20  23
ENDBRANCH  16  17
ENDBRANCH  15  16
ENDBRANCH   5  15
TORSDOF 13
ENDMDL
MODEL 9
REMARK VINA RESULT:    -6.086      1.943      4.691
REMARK INTER + INTRA:         -12.995
REMARK INTER:                 -11.343
REMARK INTRA:                  -1.651
REMARK UNBOUND:                -2.461
REMARK  Name = 
REMARK  15 active torsions:
REMARK  status: ('A' for Active; 'I' for Inactive)
REMARK    1  A    between atoms: C_1  and  C_2
REMARK    2  A    between atoms: C_2  and  C_3
REMARK    3  A    between atoms: C_3  and  C_4
REMARK    4  A    between atoms: C_4  and  C_5
REMARK    5  A    between atoms: C_5  and  C_6
REMARK    6  A    between atoms: C_6  and  O_7
REMARK    7  A    between atoms: C_6  and  C_8
REMARK    8  A    between atoms: C_12  and  O_13
REMARK    9  A    between atoms: O_13  and  C_14
REMARK   10  A    between atoms: C_14  and  C_15
REMARK   11  A    between atoms: C_18  and  O_19
REMARK   12  A    between atoms: O_19  and  C_20
REMARK   13  A    between atoms: C_20  and  C_21
REMARK   14  A    between atoms: C_21  and  O_23
REMARK   15  A    between atoms: O_23  and  C_24
REMARK                            x       y       z     vdW  Elec       q    Type
REMARK                         _______ _______ _______ _____ _____    ______ ____
ROOT
ATOM      1  C   UNL     1      20.779   1.821  49.935  0.00  0.00    +0.000 A 
ATOM      2  C   UNL     1      21.283   1.253  48.761  0.00  0.00    +0.000 A 
ATOM      3  C   UNL     1      22.308   1.892  48.071  0.00  0.00    +0.000 A 
ATOM      4  C   UNL     1      22.895   3.047  48.598  0.00  0.00    +0.000 A 
ATOM      5  C   UNL     1      22.536   3.511  49.865  0.00  0.00    +0.000 A 
ATOM      6  C   UNL     1      21.471   2.895  50.524  0.00  0.00    +0.000 A 
ENDROOT
BRANCH   1   7
ATOM      7  C   UNL     1      19.409   1.415  50.435  0.00  0.00    +0.000 C 
BRANCH   7   8
ATOM      8  O   UNL     1      18.554   1.129  49.332  0.00  0.00    +0.000 OA
ATOM      9  H   UNL     1      17.931   1.862  49.207  0.00  0.00    +0.000 HD
ENDBRANCH   7   8
BRANCH   7  10
ATOM     10  C   UNL     1      19.486   0.190  51.376  0.00  0.00    +0.000 C 
BRANCH  10  11
ATOM     11  C   UNL     1      20.142   0.425  52.748  0.00  0.00    +0.000 C 
BRANCH  11  12
ATOM     12  C   UNL     1      20.199  -0.829  53.620  0.00  0.00    +0.000 C 
BRANCH  12  14
ATOM     13  C   UNL     1      22.678  -0.795  53.186  0.00  0.00    +0.000 C 
ATOM     14  C   UNL     1      21.591  -1.043  54.221  0.00  0.00    +0.000 C 
ENDBRANCH  12  14
ENDBRANCH  11  12
ENDBRANCH  10  11
ENDBRANCH   7  10
ENDBRANCH   1   7
BRANCH   5  15
ATOM     15  O   UNL     1      23.273   4.564  50.351  0.00  0.00    +0.000 OA
BRANCH  15  16
ATOM     16  C   UNL     1      24.692   4.378  50.360  0.00  0.00    +0.000 C 
BRANCH  16  17
ATOM     17  C   UNL     1      25.133   3.243  51.258  0.00  0.00    +0.000 A 
ATOM     18  C   UNL     1      26.168   2.396  50.832  0.00  0.00    +0.000 A 
ATOM     19  C   UNL     1      26.611   1.335  51.629  0.00  0.00    +0.000 A 
ATOM     20  C   UNL     1      26.043   1.118  52.879  0.00  0.00    +0.000 A 
ATOM     21  C   UNL     1      25.056   1.995  53.339  0.00  0.00    +0.000 A 
ATOM     22  C   UNL     1      24.609   3.057  52.542  0.00  0.00    +0.000 A 
BRANCH  20  23
ATOM     23  O   UNL     1      26.331   0.069  53.710  0.00  0.00    +0.000 OA
BRANCH  23  24
ATOM     24  C   UNL     1      27.421  -0.770  53.356  0.00  0.00    +0.000 C 
BRANCH  24  25
ATOM     25  C   UNL     1      28.794  -0.478  53.959  0.00  0.00    +0.000 C 
ATOM     26  O   UNL     1      29.857  -1.036  53.681  0.00  0.00    +0.000 OA
BRANCH  25  27
ATOM     27  O   UNL     1      28.666   0.540  54.867  0.00  0.00    +0.000 OA
ATOM     28  C   UNL     1      29.363   1.741  54.532  0.00  0.00    +0.000 C 
ENDBRANCH  25  27
ENDBRANCH  24  25
ENDBRANCH  23  24
ENDBRANCH  20  23
ENDBRANCH  16  17
ENDBRANCH  15  16
ENDBRANCH   5  15
TORSDOF 13
ENDMDL
