MODEL 1
REMARK VINA RESULT:    -8.098      0.000      0.000
REMARK INTER + INTRA:         -14.798
REMARK INTER:                 -12.832
REMARK INTRA:                  -1.967
REMARK UNBOUND:                -1.967
REMARK  Name = 
REMARK  13 active torsions:
REMARK  status: ('A' for Active; 'I' for Inactive)
REMARK    1  A    between atoms: C_2  and  C_3
REMARK    2  A    between atoms: C_3  and  C_4
REMARK    3  A    between atoms: C_4  and  C_5
REMARK    4  A    between atoms: C_6  and  C_7
REMARK    5  A    between atoms: C_7  and  O_9
REMARK    6  A    between atoms: O_9  and  C_10
REMARK    7  A    between atoms: C_10  and  C_11
REMARK    8  A    between atoms: C_10  and  C_16
REMARK    9  A    between atoms: C_11  and  C_12
REMARK   10  A    between atoms: C_13  and  C_14
REMARK   11  A    between atoms: C_13  and  C_15
REMARK   12  A    between atoms: C_21  and  O_22
REMARK   13  A    between atoms: C_25  and  O_26
REMARK                            x       y       z     vdW  Elec       q    Type
REMARK                         _______ _______ _______ _____ _____    ______ ____
ROOT
ATOM      1  C   UNL     1      25.438   0.955  52.389  0.00  0.00    +0.000 C 
ATOM      2  C   UNL     1      25.521  -0.316  51.954  0.00  0.00    +0.000 C 
ATOM      3  C   UNL     1      26.587  -1.248  52.416  0.00  0.00    +0.000 C 
ATOM      4  O   UNL     1      26.525  -2.454  52.211  0.00  0.00    +0.000 OA
ATOM      5  C   UNL     1      27.770  -0.663  53.079  0.00  0.00    +0.000 A 
ATOM      6  C   UNL     1      28.922  -1.411  53.343  0.00  0.00    +0.000 A 
ATOM      7  C   UNL     1      30.052  -0.800  53.888  0.00  0.00    +0.000 A 
ATOM      8  C   UNL     1      30.046   0.572  54.151  0.00  0.00    +0.000 A 
ATOM      9  C   UNL     1      28.886   1.309  53.924  0.00  0.00    +0.000 A 
ATOM     10  C   UNL     1      27.736   0.680  53.432  0.00  0.00    +0.000 A 
ATOM     11  C   UNL     1      26.423   1.344  53.441  0.00  0.00    +0.000 C 
ATOM     12  O   UNL     1      26.109   2.055  54.382  0.00  0.00    +0.000 OA
ENDROOT
BRANCH   6  13
ATOM     13  O   UNL     1      29.011  -2.755  53.105  0.00  0.00    +0.000 OA
ATOM     14  H   UNL     1      28.969  -3.079  52.226  0.00  0.00    +0.000 HD
ENDBRANCH   6  13
BRANCH   9  15
ATOM     15  O   UNL     1      28.887   2.656  54.144  0.00  0.00    +0.000 OA
ATOM     16  H   UNL     1      29.155   2.996  54.975  0.00  0.00    +0.000 HD
ENDBRANCH   9  15
BRANCH   1  17
ATOM     17  C   UNL     1      24.302   1.917  52.051  0.00  0.00    +0.000 C 
BRANCH  17  18
ATOM     18  O   UNL     1      23.534   1.489  50.882  0.00  0.00    +0.000 OA
BRANCH  18  19
ATOM     19  C   UNL     1      22.194   1.491  51.041  0.00  0.00    +0.000 C 
ATOM     20  O   UNL     1      21.453   2.368  50.623  0.00  0.00    +0.000 OA
BRANCH  19  22
ATOM     21  C   UNL     1      21.336   0.105  52.990  0.00  0.00    +0.000 C 
ATOM     22  C   UNL     1      21.654   0.268  51.693  0.00  0.00    +0.000 C 
BRANCH  21  23
ATOM     23  C   UNL     1      20.927  -1.197  53.663  0.00  0.00    +0.000 C 
BRANCH  23  24
ATOM     24  C   UNL     1      21.882  -1.750  54.740  0.00  0.00    +0.000 C 
BRANCH  24  26
ATOM     25  C   UNL     1      24.276  -1.265  55.358  0.00  0.00    +0.000 C 
ATOM     26  C   UNL     1      23.048  -0.839  55.029  0.00  0.00    +0.000 C 
ENDBRANCH  24  26
ENDBRANCH  23  24
ENDBRANCH  21  23
ENDBRANCH  19  22
ENDBRANCH  18  19
ENDBRANCH  17  18
BRANCH  17  27
ATOM     27  C   UNL     1      24.697   3.376  51.695  0.00  0.00    +0.000 C 
BRANCH  27  28
ATOM     28  C   UNL     1      25.812   3.447  50.675  0.00  0.00    +0.000 C 
ATOM     29  C   UNL     1      26.109   4.507  49.902  0.00  0.00    +0.000 C 
ATOM     30  C   UNL     1      27.225   4.432  48.898  0.00  0.00    +0.000 C 
ATOM     31  C   UNL     1      25.353   5.802  49.967  0.00  0.00    +0.000 C 
ENDBRANCH  27  28
ENDBRANCH  17  27
ENDBRANCH   1  17
TORSDOF 11
ENDMDL
MODEL 2
REMARK VINA RESULT:    -8.022      1.111      5.395
REMARK INTER + INTRA:         -14.679
REMARK INTER:                 -13.334
REMARK INTRA:                  -1.345
REMARK UNBOUND:                -1.967
REMARK  Name = 
REMARK  13 active torsions:
REMARK  status: ('A' for Active; 'I' for Inactive)
REMARK    1  A    between atoms: C_2  and  C_3
REMARK    2  A    between atoms: C_3  and  C_4
REMARK    3  A    between atoms: C_4  and  C_5
REMARK    4  A    between atoms: C_6  and  C_7
REMARK    5  A    between atoms: C_7  and  O_9
REMARK    6  A    between atoms: O_9  and  C_10
REMARK    7  A    between atoms: C_10  and  C_11
REMARK    8  A    between atoms: C_10  and  C_16
REMARK    9  A    between atoms: C_11  and  C_12
REMARK   10  A    between atoms: C_13  and  C_14
REMARK   11  A    between atoms: C_13  and  C_15
REMARK   12  A    between atoms: C_21  and  O_22
REMARK   13  A    between atoms: C_25  and  O_26
REMARK                            x       y       z     vdW  Elec       q    Type
REMARK                         _______ _______ _______ _____ _____    ______ ____
ROOT
ATOM      1  C   UNL     1      25.154   0.564  52.496  0.00  0.00    +0.000 C 
ATOM      2  C   UNL     1      25.437  -0.706  52.148  0.00  0.00    +0.000 C 
ATOM      3  C   UNL     1      26.656  -1.411  52.629  0.00  0.00    +0.000 C 
ATOM      4  O   UNL     1      26.791  -2.623  52.511  0.00  0.00    +0.000 OA
ATOM      5  C   UNL     1      27.744  -0.591  53.199  0.00  0.00    +0.000 A 
ATOM      6  C   UNL     1      29.012  -1.116  53.465  0.00  0.00    +0.000 A 
ATOM      7  C   UNL     1      30.039  -0.288  53.919  0.00  0.00    +0.000 A 
ATOM      8  C   UNL     1      29.812   1.080  54.086  0.00  0.00    +0.000 A 
ATOM      9  C   UNL     1      28.539   1.597  53.856  0.00  0.00    +0.000 A 
ATOM     10  C   UNL     1      27.496   0.752  53.458  0.00  0.00    +0.000 A 
ATOM     11  C   UNL     1      26.091   1.188  53.476  0.00  0.00    +0.000 C 
ATOM     12  O   UNL     1      25.691   1.908  54.377  0.00  0.00    +0.000 OA
ENDROOT
BRANCH   6  13
ATOM     13  O   UNL     1      29.318  -2.442  53.318  0.00  0.00    +0.000 OA
ATOM     14  H   UNL     1      28.682  -3.096  53.533  0.00  0.00    +0.000 HD
ENDBRANCH   6  13
BRANCH   9  15
ATOM     15  O   UNL     1      28.321   2.938  53.981  0.00  0.00    +0.000 OA
ATOM     16  H   UNL     1      27.539   3.320  53.635  0.00  0.00    +0.000 HD
ENDBRANCH   9  15
BRANCH   1  17
ATOM     17  C   UNL     1      23.864   1.297  52.139  0.00  0.00    +0.000 C 
BRANCH  17  18
ATOM     18  O   UNL     1      24.107   2.655  51.655  0.00  0.00    +0.000 OA
BRANCH  18  19
ATOM     19  C   UNL     1      23.769   2.877  50.367  0.00  0.00    +0.000 C 
ATOM     20  O   UNL     1      22.625   2.832  49.939  0.00  0.00    +0.000 OA
BRANCH  19  22
ATOM     21  C   UNL     1      26.120   3.713  49.890  0.00  0.00    +0.000 C 
ATOM     22  C   UNL     1      24.905   3.287  49.500  0.00  0.00    +0.000 C 
BRANCH  21  23
ATOM     23  C   UNL     1      27.214   4.268  48.991  0.00  0.00    +0.000 C 
BRANCH  23  24
ATOM     24  C   UNL     1      27.173   5.782  48.703  0.00  0.00    +0.000 C 
BRANCH  24  26
ATOM     25  C   UNL     1      29.647   5.994  48.271  0.00  0.00    +0.000 C 
ATOM     26  C   UNL     1      28.378   6.277  47.943  0.00  0.00    +0.000 C 
ENDBRANCH  24  26
ENDBRANCH  23  24
ENDBRANCH  21  23
ENDBRANCH  19  22
ENDBRANCH  18  19
ENDBRANCH  17  18
BRANCH  17  27
ATOM     27  C   UNL     1      22.837   1.512  53.284  0.00  0.00    +0.000 C 
BRANCH  27  28
ATOM     28  C   UNL     1      21.811   0.403  53.365  0.00  0.00    +0.000 C 
ATOM     29  C   UNL     1      21.885  -0.686  54.149  0.00  0.00    +0.000 C 
ATOM     30  C   UNL     1      20.810  -1.735  54.105  0.00  0.00    +0.000 C 
ATOM     31  C   UNL     1      23.031  -0.941  55.085  0.00  0.00    +0.000 C 
ENDBRANCH  27  28
ENDBRANCH  17  27
ENDBRANCH   1  17
TORSDOF 11
ENDMDL
MODEL 3
REMARK VINA RESULT:    -7.962      1.595      4.339
REMARK INTER + INTRA:         -14.583
REMARK INTER:                 -12.654
REMARK INTRA:                  -1.929
REMARK UNBOUND:                -1.967
REMARK  Name = 
REMARK  13 active torsions:
REMARK  status: ('A' for Active; 'I' for Inactive)
REMARK    1  A    between atoms: C_2  and  C_3
REMARK    2  A    between atoms: C_3  and  C_4
REMARK    3  A    between atoms: C_4  and  C_5
REMARK    4  A    between atoms: C_6  and  C_7
REMARK    5  A    between atoms: C_7  and  O_9
REMARK    6  A    between atoms: O_9  and  C_10
REMARK    7  A    between atoms: C_10  and  C_11
REMARK    8  A    between atoms: C_10  and  C_16
REMARK    9  A    between atoms: C_11  and  C_12
REMARK   10  A    between atoms: C_13  and  C_14
REMARK   11  A    between atoms: C_13  and  C_15
REMARK   12  A    between atoms: C_21  and  O_22
REMARK   13  A    between atoms: C_25  and  O_26
REMARK                            x       y       z     vdW  Elec       q    Type
REMARK                         _______ _______ _______ _____ _____    ______ ____
ROOT
ATOM      1  C   UNL     1      25.593   0.940  52.357  0.00  0.00    +0.000 C 
ATOM      2  C   UNL     1      25.650  -0.345  51.962  0.00  0.00    +0.000 C 
ATOM      3  C   UNL     1      26.695  -1.284  52.454  0.00  0.00    +0.000 C 
ATOM      4  O   UNL     1      26.608  -2.495  52.287  0.00  0.00    +0.000 OA
ATOM      5  C   UNL     1      27.890  -0.704  53.100  0.00  0.00    +0.000 A 
ATOM      6  C   UNL     1      29.026  -1.467  53.388  0.00  0.00    +0.000 A 
ATOM      7  C   UNL     1      30.168  -0.864  53.916  0.00  0.00    +0.000 A 
ATOM      8  C   UNL     1      30.191   0.516  54.136  0.00  0.00    +0.000 A 
ATOM      9  C   UNL     1      29.047   1.270  53.884  0.00  0.00    +0.000 A 
ATOM     10  C   UNL     1      27.884   0.650  53.411  0.00  0.00    +0.000 A 
ATOM     11  C   UNL     1      26.586   1.341  53.397  0.00  0.00    +0.000 C 
ATOM     12  O   UNL     1      26.286   2.088  54.316  0.00  0.00    +0.000 OA
ENDROOT
BRANCH   6  13
ATOM     13  O   UNL     1      29.087  -2.820  53.192  0.00  0.00    +0.000 OA
ATOM     14  H   UNL     1      29.563  -3.360  53.792  0.00  0.00    +0.000 HD
ENDBRANCH   6  13
BRANCH   9  15
ATOM     15  O   UNL     1      29.077   2.623  54.062  0.00  0.00    +0.000 OA
ATOM     16  H   UNL     1      29.484   3.171  53.420  0.00  0.00    +0.000 HD
ENDBRANCH   9  15
BRANCH   1  17
ATOM     17  C   UNL     1      24.478   1.915  51.988  0.00  0.00    +0.000 C 
BRANCH  17  18
ATOM     18  O   UNL     1      24.980   3.256  51.695  0.00  0.00    +0.000 OA
BRANCH  18  19
ATOM     19  C   UNL     1      25.547   3.407  50.479  0.00  0.00    +0.000 C 
ATOM     20  O   UNL     1      26.726   3.671  50.297  0.00  0.00    +0.000 OA
BRANCH  19  22
ATOM     21  C   UNL     1      23.441   3.696  49.088  0.00  0.00    +0.000 C 
ATOM     22  C   UNL     1      24.632   3.125  49.341  0.00  0.00    +0.000 C 
BRANCH  21  23
ATOM     23  C   UNL     1      22.456   3.288  48.003  0.00  0.00    +0.000 C 
BRANCH  23  24
ATOM     24  C   UNL     1      22.187   1.778  47.842  0.00  0.00    +0.000 C 
BRANCH  24  26
ATOM     25  C   UNL     1      20.277   1.341  49.426  0.00  0.00    +0.000 C 
ATOM     26  C   UNL     1      21.553   1.153  49.059  0.00  0.00    +0.000 C 
ENDBRANCH  24  26
ENDBRANCH  23  24
ENDBRANCH  21  23
ENDBRANCH  19  22
ENDBRANCH  18  19
ENDBRANCH  17  18
BRANCH  17  27
ATOM     27  C   UNL     1      23.387   2.177  53.062  0.00  0.00    +0.000 C 
BRANCH  27  28
ATOM     28  C   UNL     1      22.074   1.497  52.740  0.00  0.00    +0.000 C 
ATOM     29  C   UNL     1      21.671   0.300  53.198  0.00  0.00    +0.000 C 
ATOM     30  C   UNL     1      20.353  -0.280  52.768  0.00  0.00    +0.000 C 
ATOM     31  C   UNL     1      22.497  -0.537  54.131  0.00  0.00    +0.000 C 
ENDBRANCH  27  28
ENDBRANCH  17  27
ENDBRANCH   1  17
TORSDOF 11
ENDMDL
MODEL 4
REMARK VINA RESULT:    -7.520      1.752      2.948
REMARK INTER + INTRA:         -13.883
REMARK INTER:                 -12.110
REMARK INTRA:                  -1.773
REMARK UNBOUND:                -1.967
REMARK  Name = 
REMARK  13 active torsions:
REMARK  status: ('A' for Active; 'I' for Inactive)
REMARK    1  A    between atoms: C_2  and  C_3
REMARK    2  A    between atoms: C_3  and  C_4
REMARK    3  A    between atoms: C_4  and  C_5
REMARK    4  A    between atoms: C_6  and  C_7
REMARK    5  A    between atoms: C_7  and  O_9
REMARK    6  A    between atoms: O_9  and  C_10
REMARK    7  A    between atoms: C_10  and  C_11
REMARK    8  A    between atoms: C_10  and  C_16
REMARK    9  A    between atoms: C_11  and  C_12
REMARK   10  A    between atoms: C_13  and  C_14
REMARK   11  A    between atoms: C_13  and  C_15
REMARK   12  A    between atoms: C_21  and  O_22
REMARK   13  A    between atoms: C_25  and  O_26
REMARK                            x       y       z     vdW  Elec       q    Type
REMARK                         _______ _______ _______ _____ _____    ______ ____
ROOT
ATOM      1  C   UNL     1      25.144   0.630  52.599  0.00  0.00    +0.000 C 
ATOM      2  C   UNL     1      25.374  -0.637  52.206  0.00  0.00    +0.000 C 
ATOM      3  C   UNL     1      26.586  -1.393  52.625  0.00  0.00    +0.000 C 
ATOM      4  O   UNL     1      26.679  -2.605  52.468  0.00  0.00    +0.000 OA
ATOM      5  C   UNL     1      27.717  -0.624  53.180  0.00  0.00    +0.000 A 
ATOM      6  C   UNL     1      28.977  -1.195  53.388  0.00  0.00    +0.000 A 
ATOM      7  C   UNL     1      30.044  -0.413  53.830  0.00  0.00    +0.000 A 
ATOM      8  C   UNL     1      29.866   0.956  54.043  0.00  0.00    +0.000 A 
ATOM      9  C   UNL     1      28.603   1.518  53.872  0.00  0.00    +0.000 A 
ATOM     10  C   UNL     1      27.521   0.718  53.486  0.00  0.00    +0.000 A 
ATOM     11  C   UNL     1      26.132   1.197  53.564  0.00  0.00    +0.000 C 
ATOM     12  O   UNL     1      25.785   1.901  54.499  0.00  0.00    +0.000 OA
ENDROOT
BRANCH   6  13
ATOM     13  O   UNL     1      29.235  -2.525  53.193  0.00  0.00    +0.000 OA
ATOM     14  H   UNL     1      30.121  -2.825  53.123  0.00  0.00    +0.000 HD
ENDBRANCH   6  13
BRANCH   9  15
ATOM     15  O   UNL     1      28.432   2.862  54.042  0.00  0.00    +0.000 OA
ATOM     16  H   UNL     1      28.864   3.304  54.746  0.00  0.00    +0.000 HD
ENDBRANCH   9  15
BRANCH   1  17
ATOM     17  C   UNL     1      23.866   1.413  52.309  0.00  0.00    +0.000 C 
BRANCH  17  18
ATOM     18  O   UNL     1      22.696   0.546  52.178  0.00  0.00    +0.000 OA
BRANCH  18  19
ATOM     19  C   UNL     1      21.844   0.567  53.224  0.00  0.00    +0.000 C 
ATOM     20  O   UNL     1      22.013  -0.057  54.262  0.00  0.00    +0.000 OA
BRANCH  19  22
ATOM     21  C   UNL     1      20.266   2.077  51.926  0.00  0.00    +0.000 C 
ATOM     22  C   UNL     1      20.702   1.506  53.063  0.00  0.00    +0.000 C 
BRANCH  21  23
ATOM     23  C   UNL     1      19.192   3.147  51.807  0.00  0.00    +0.000 C 
BRANCH  23  24
ATOM     24  C   UNL     1      19.483   4.317  50.846  0.00  0.00    +0.000 C 
BRANCH  24  26
ATOM     25  C   UNL     1      21.676   5.400  51.452  0.00  0.00    +0.000 C 
ATOM     26  C   UNL     1      20.956   4.588  50.665  0.00  0.00    +0.000 C 
ENDBRANCH  24  26
ENDBRANCH  23  24
ENDBRANCH  21  23
ENDBRANCH  19  22
ENDBRANCH  18  19
ENDBRANCH  17  18
BRANCH  17  27
ATOM     27  C   UNL     1      23.833   2.245  50.998  0.00  0.00    +0.000 C 
BRANCH  27  28
ATOM     28  C   UNL     1      25.205   2.722  50.573  0.00  0.00    +0.000 C 
ATOM     29  C   UNL     1      25.462   3.725  49.715  0.00  0.00    +0.000 C 
ATOM     30  C   UNL     1      26.877   4.073  49.349  0.00  0.00    +0.000 C 
ATOM     31  C   UNL     1      24.382   4.534  49.059  0.00  0.00    +0.000 C 
ENDBRANCH  27  28
ENDBRANCH  17  27
ENDBRANCH   1  17
TORSDOF 11
ENDMDL
MODEL 5
REMARK VINA RESULT:    -7.474      2.600      6.794
REMARK INTER + INTRA:         -13.810
REMARK INTER:                 -11.946
REMARK INTRA:                  -1.864
REMARK UNBOUND:                -1.967
REMARK  Name = 
REMARK  13 active torsions:
REMARK  status: ('A' for Active; 'I' for Inactive)
REMARK    1  A    between atoms: C_2  and  C_3
REMARK    2  A    between atoms: C_3  and  C_4
REMARK    3  A    between atoms: C_4  and  C_5
REMARK    4  A    between atoms: C_6  and  C_7
REMARK    5  A    between atoms: C_7  and  O_9
REMARK    6  A    between atoms: O_9  and  C_10
REMARK    7  A    between atoms: C_10  and  C_11
REMARK    8  A    between atoms: C_10  and  C_16
REMARK    9  A    between atoms: C_11  and  C_12
REMARK   10  A    between atoms: C_13  and  C_14
REMARK   11  A    between atoms: C_13  and  C_15
REMARK   12  A    between atoms: C_21  and  O_22
REMARK   13  A    between atoms: C_25  and  O_26
REMARK                            x       y       z     vdW  Elec       q    Type
REMARK                         _______ _______ _______ _____ _____    ______ ____
ROOT
ATOM      1  C   UNL     1      22.765   1.651  50.916  0.00  0.00    +0.000 C 
ATOM      2  C   UNL     1      22.875   1.250  52.196  0.00  0.00    +0.000 C 
ATOM      3  C   UNL     1      21.863   0.372  52.846  0.00  0.00    +0.000 C 
ATOM      4  O   UNL     1      22.079  -0.181  53.917  0.00  0.00    +0.000 OA
ATOM      5  C   UNL     1      20.548   0.238  52.188  0.00  0.00    +0.000 A 
ATOM      6  C   UNL     1      19.457  -0.367  52.820  0.00  0.00    +0.000 A 
ATOM      7  C   UNL     1      18.207  -0.394  52.201  0.00  0.00    +0.000 A 
ATOM      8  C   UNL     1      18.032   0.208  50.953  0.00  0.00    +0.000 A 
ATOM      9  C   UNL     1      19.127   0.778  50.307  0.00  0.00    +0.000 A 
ATOM     10  C   UNL     1      20.392   0.750  50.905  0.00  0.00    +0.000 A 
ATOM     11  C   UNL     1      21.614   1.079  50.156  0.00  0.00    +0.000 C 
ATOM     12  O   UNL     1      21.724   0.731  48.991  0.00  0.00    +0.000 OA
ENDROOT
BRANCH   6  13
ATOM     13  O   UNL     1      19.543  -0.970  54.045  0.00  0.00    +0.000 OA
ATOM     14  H   UNL     1      20.353  -0.957  54.518  0.00  0.00    +0.000 HD
ENDBRANCH   6  13
BRANCH   9  15
ATOM     15  O   UNL     1      18.954   1.400  49.104  0.00  0.00    +0.000 OA
ATOM     16  H   UNL     1      18.093   1.498  48.747  0.00  0.00    +0.000 HD
ENDBRANCH   9  15
BRANCH   1  17
ATOM     17  C   UNL     1      23.827   2.444  50.159  0.00  0.00    +0.000 C 
BRANCH  17  18
ATOM     18  O   UNL     1      24.728   3.170  51.053  0.00  0.00    +0.000 OA
BRANCH  18  19
ATOM     19  C   UNL     1      26.036   2.861  50.926  0.00  0.00    +0.000 C 
ATOM     20  O   UNL     1      26.797   3.399  50.135  0.00  0.00    +0.000 OA
BRANCH  19  22
ATOM     21  C   UNL     1      26.571   0.526  51.770  0.00  0.00    +0.000 C 
ATOM     22  C   UNL     1      26.526   1.862  51.913  0.00  0.00    +0.000 C 
BRANCH  21  23
ATOM     23  C   UNL     1      26.936  -0.486  52.846  0.00  0.00    +0.000 C 
BRANCH  23  24
ATOM     24  C   UNL     1      27.423   0.081  54.195  0.00  0.00    +0.000 C 
BRANCH  24  26
ATOM     25  C   UNL     1      29.745  -0.682  53.582  0.00  0.00    +0.000 C 
ATOM     26  C   UNL     1      28.923   0.049  54.349  0.00  0.00    +0.000 C 
ENDBRANCH  24  26
ENDBRANCH  23  24
ENDBRANCH  21  23
ENDBRANCH  19  22
ENDBRANCH  18  19
ENDBRANCH  17  18
BRANCH  17  27
ATOM     27  C   UNL     1      23.323   3.553  49.194  0.00  0.00    +0.000 C 
BRANCH  27  28
ATOM     28  C   UNL     1      23.078   4.871  49.895  0.00  0.00    +0.000 C 
ATOM     29  C   UNL     1      21.888   5.330  50.319  0.00  0.00    +0.000 C 
ATOM     30  C   UNL     1      21.777   6.680  50.971  0.00  0.00    +0.000 C 
ATOM     31  C   UNL     1      20.610   4.559  50.155  0.00  0.00    +0.000 C 
ENDBRANCH  27  28
ENDBRANCH  17  27
ENDBRANCH   1  17
TORSDOF 11
ENDMDL
MODEL 6
REMARK VINA RESULT:    -7.363      2.722      5.892
REMARK INTER + INTRA:         -13.634
REMARK INTER:                 -12.047
REMARK INTRA:                  -1.587
REMARK UNBOUND:                -1.967
REMARK  Name = 
REMARK  13 active torsions:
REMARK  status: ('A' for Active; 'I' for Inactive)
REMARK    1  A    between atoms: C_2  and  C_3
REMARK    2  A    between atoms: C_3  and  C_4
REMARK    3  A    between atoms: C_4  and  C_5
REMARK    4  A    between atoms: C_6  and  C_7
REMARK    5  A    between atoms: C_7  and  O_9
REMARK    6  A    between atoms: O_9  and  C_10
REMARK    7  A    between atoms: C_10  and  C_11
REMARK    8  A    between atoms: C_10  and  C_16
REMARK    9  A    between atoms: C_11  and  C_12
REMARK   10  A    between atoms: C_13  and  C_14
REMARK   11  A    between atoms: C_13  and  C_15
REMARK   12  A    between atoms: C_21  and  O_22
REMARK   13  A    between atoms: C_25  and  O_26
REMARK                            x       y       z     vdW  Elec       q    Type
REMARK                         _______ _______ _______ _____ _____    ______ ____
ROOT
ATOM      1  C   UNL     1      24.525   3.382  50.568  0.00  0.00    +0.000 C 
ATOM      2  C   UNL     1      25.571   3.416  49.721  0.00  0.00    +0.000 C 
ATOM      3  C   UNL     1      26.292   4.678  49.395  0.00  0.00    +0.000 C 
ATOM      4  O   UNL     1      27.375   4.675  48.822  0.00  0.00    +0.000 OA
ATOM      5  C   UNL     1      25.625   5.953  49.723  0.00  0.00    +0.000 A 
ATOM      6  C   UNL     1      26.099   7.184  49.257  0.00  0.00    +0.000 A 
ATOM      7  C   UNL     1      25.390   8.358  49.514  0.00  0.00    +0.000 A 
ATOM      8  C   UNL     1      24.185   8.307  50.219  0.00  0.00    +0.000 A 
ATOM      9  C   UNL     1      23.732   7.087  50.715  0.00  0.00    +0.000 A 
ATOM     10  C   UNL     1      24.477   5.920  50.506  0.00  0.00    +0.000 A 
ATOM     11  C   UNL     1      24.194   4.675  51.237  0.00  0.00    +0.000 C 
ATOM     12  O   UNL     1      23.862   4.723  52.411  0.00  0.00    +0.000 OA
ENDROOT
BRANCH   6  13
ATOM     13  O   UNL     1      27.264   7.317  48.552  0.00  0.00    +0.000 OA
ATOM     14  H   UNL     1      27.322   7.943  47.857  0.00  0.00    +0.000 HD
ENDBRANCH   6  13
BRANCH   9  15
ATOM     15  O   UNL     1      22.537   7.025  51.372  0.00  0.00    +0.000 OA
ATOM     16  H   UNL     1      22.466   7.350  52.247  0.00  0.00    +0.000 HD
ENDBRANCH   9  15
BRANCH   1  17
ATOM     17  C   UNL     1      23.828   2.109  51.038  0.00  0.00    +0.000 C 
BRANCH  17  18
ATOM     18  O   UNL     1      22.371   2.234  51.035  0.00  0.00    +0.000 OA
BRANCH  18  19
ATOM     19  C   UNL     1      21.709   1.235  50.414  0.00  0.00    +0.000 C 
ATOM     20  O   UNL     1      21.749   1.027  49.210  0.00  0.00    +0.000 OA
BRANCH  19  22
ATOM     21  C   UNL     1      20.641   0.547  52.614  0.00  0.00    +0.000 C 
ATOM     22  C   UNL     1      20.985   0.318  51.334  0.00  0.00    +0.000 C 
BRANCH  21  23
ATOM     23  C   UNL     1      20.034  -0.459  53.580  0.00  0.00    +0.000 C 
BRANCH  23  24
ATOM     24  C   UNL     1      20.979  -1.540  54.140  0.00  0.00    +0.000 C 
BRANCH  24  26
ATOM     25  C   UNL     1      23.079  -1.435  55.528  0.00  0.00    +0.000 C 
ATOM     26  C   UNL     1      22.349  -1.013  54.485  0.00  0.00    +0.000 C 
ENDBRANCH  24  26
ENDBRANCH  23  24
ENDBRANCH  21  23
ENDBRANCH  19  22
ENDBRANCH  18  19
ENDBRANCH  17  18
BRANCH  17  27
ATOM     27  C   UNL     1      24.135   1.631  52.484  0.00  0.00    +0.000 C 
BRANCH  27  28
ATOM     28  C   UNL     1      24.897   0.325  52.519  0.00  0.00    +0.000 C 
ATOM     29  C   UNL     1      26.235   0.191  52.529  0.00  0.00    +0.000 C 
ATOM     30  C   UNL     1      26.867  -1.172  52.526  0.00  0.00    +0.000 C 
ATOM     31  C   UNL     1      27.172   1.364  52.519  0.00  0.00    +0.000 C 
ENDBRANCH  27  28
ENDBRANCH  17  27
ENDBRANCH   1  17
TORSDOF 11
ENDMDL
MODEL 7
REMARK VINA RESULT:    -7.336      2.039      2.828
REMARK INTER + INTRA:         -13.591
REMARK INTER:                 -12.056
REMARK INTRA:                  -1.535
REMARK UNBOUND:                -1.967
REMARK  Name = 
REMARK  13 active torsions:
REMARK  status: ('A' for Active; 'I' for Inactive)
REMARK    1  A    between atoms: C_2  and  C_3
REMARK    2  A    between atoms: C_3  and  C_4
REMARK    3  A    between atoms: C_4  and  C_5
REMARK    4  A    between atoms: C_6  and  C_7
REMARK    5  A    between atoms: C_7  and  O_9
REMARK    6  A    between atoms: O_9  and  C_10
REMARK    7  A    between atoms: C_10  and  C_11
REMARK    8  A    between atoms: C_10  and  C_16
REMARK    9  A    between atoms: C_11  and  C_12
REMARK   10  A    between atoms: C_13  and  C_14
REMARK   11  A    between atoms: C_13  and  C_15
REMARK   12  A    between atoms: C_21  and  O_22
REMARK   13  A    between atoms: C_25  and  O_26
REMARK                            x       y       z     vdW  Elec       q    Type
REMARK                         _______ _______ _______ _____ _____    ______ ____
ROOT
ATOM      1  C   UNL     1      23.750   1.774  51.444  0.00  0.00    +0.000 C 
ATOM      2  C   UNL     1      23.304   0.683  52.094  0.00  0.00    +0.000 C 
ATOM      3  C   UNL     1      23.997   0.130  53.290  0.00  0.00    +0.000 C 
ATOM      4  O   UNL     1      23.470  -0.705  54.015  0.00  0.00    +0.000 OA
ATOM      5  C   UNL     1      25.383   0.570  53.545  0.00  0.00    +0.000 A 
ATOM      6  C   UNL     1      26.200  -0.052  54.495  0.00  0.00    +0.000 A 
ATOM      7  C   UNL     1      27.533   0.335  54.643  0.00  0.00    +0.000 A 
ATOM      8  C   UNL     1      28.067   1.331  53.823  0.00  0.00    +0.000 A 
ATOM      9  C   UNL     1      27.243   1.977  52.903  0.00  0.00    +0.000 A 
ATOM     10  C   UNL     1      25.891   1.627  52.799  0.00  0.00    +0.000 A 
ATOM     11  C   UNL     1      24.929   2.455  52.057  0.00  0.00    +0.000 C 
ATOM     12  O   UNL     1      25.016   3.672  52.099  0.00  0.00    +0.000 OA
ENDROOT
BRANCH   6  13
ATOM     13  O   UNL     1      25.756  -1.042  55.328  0.00  0.00    +0.000 OA
ATOM     14  H   UNL     1      25.638  -0.867  56.242  0.00  0.00    +0.000 HD
ENDBRANCH   6  13
BRANCH   9  15
ATOM     15  O   UNL     1      27.769   2.925  52.073  0.00  0.00    +0.000 OA
ATOM     16  H   UNL     1      27.744   2.801  51.145  0.00  0.00    +0.000 HD
ENDBRANCH   9  15
BRANCH   1  17
ATOM     17  C   UNL     1      23.018   2.461  50.294  0.00  0.00    +0.000 C 
BRANCH  17  18
ATOM     18  O   UNL     1      22.064   1.575  49.628  0.00  0.00    +0.000 OA
BRANCH  18  19
ATOM     19  C   UNL     1      20.767   1.929  49.751  0.00  0.00    +0.000 C 
ATOM     20  O   UNL     1      20.324   3.030  49.458  0.00  0.00    +0.000 OA
BRANCH  19  22
ATOM     21  C   UNL     1      19.032   0.818  51.237  0.00  0.00    +0.000 C 
ATOM     22  C   UNL     1      19.872   0.824  50.187  0.00  0.00    +0.000 C 
BRANCH  21  23
ATOM     23  C   UNL     1      18.236  -0.372  51.750  0.00  0.00    +0.000 C 
BRANCH  23  24
ATOM     24  C   UNL     1      18.590  -0.886  53.160  0.00  0.00    +0.000 C 
BRANCH  24  26
ATOM     25  C   UNL     1      20.415   0.323  54.408  0.00  0.00    +0.000 C 
ATOM     26  C   UNL     1      20.025  -0.628  53.547  0.00  0.00    +0.000 C 
ENDBRANCH  24  26
ENDBRANCH  23  24
ENDBRANCH  21  23
ENDBRANCH  19  22
ENDBRANCH  18  19
ENDBRANCH  17  18
BRANCH  17  27
ATOM     27  C   UNL     1      23.888   2.984  49.118  0.00  0.00    +0.000 C 
BRANCH  27  28
ATOM     28  C   UNL     1      23.850   4.491  48.987  0.00  0.00    +0.000 C 
ATOM     29  C   UNL     1      24.915   5.311  48.983  0.00  0.00    +0.000 C 
ATOM     30  C   UNL     1      24.734   6.799  48.884  0.00  0.00    +0.000 C 
ATOM     31  C   UNL     1      26.327   4.815  49.099  0.00  0.00    +0.000 C 
ENDBRANCH  27  28
ENDBRANCH  17  27
ENDBRANCH   1  17
TORSDOF 11
ENDMDL
MODEL 8
REMARK VINA RESULT:    -7.308      2.712      8.058
REMARK INTER + INTRA:         -13.548
REMARK INTER:                 -11.652
REMARK INTRA:                  -1.896
REMARK UNBOUND:                -1.967
REMARK  Name = 
REMARK  13 active torsions:
REMARK  status: ('A' for Active; 'I' for Inactive)
REMARK    1  A    between atoms: C_2  and  C_3
REMARK    2  A    between atoms: C_3  and  C_4
REMARK    3  A    between atoms: C_4  and  C_5
REMARK    4  A    between atoms: C_6  and  C_7
REMARK    5  A    between atoms: C_7  and  O_9
REMARK    6  A    between atoms: O_9  and  C_10
REMARK    7  A    between atoms: C_10  and  C_11
REMARK    8  A    between atoms: C_10  and  C_16
REMARK    9  A    between atoms: C_11  and  C_12
REMARK   10  A    between atoms: C_13  and  C_14
REMARK   11  A    between atoms: C_13  and  C_15
REMARK   12  A    between atoms: C_21  and  O_22
REMARK   13  A    between atoms: C_25  and  O_26
REMARK                            x       y       z     vdW  Elec       q    Type
REMARK                         _______ _______ _______ _____ _____    ______ ____
ROOT
ATOM      1  C   UNL     1      21.369   0.692  51.968  0.00  0.00    +0.000 C 
ATOM      2  C   UNL     1      21.112   1.105  50.713  0.00  0.00    +0.000 C 
ATOM      3  C   UNL     1      19.730   1.173  50.164  0.00  0.00    +0.000 C 
ATOM      4  O   UNL     1      19.476   1.766  49.122  0.00  0.00    +0.000 OA
ATOM      5  C   UNL     1      18.669   0.440  50.882  0.00  0.00    +0.000 A 
ATOM      6  C   UNL     1      17.396   0.246  50.336  0.00  0.00    +0.000 A 
ATOM      7  C   UNL     1      16.450  -0.529  51.007  0.00  0.00    +0.000 A 
ATOM      8  C   UNL     1      16.778  -1.139  52.220  0.00  0.00    +0.000 A 
ATOM      9  C   UNL     1      18.033  -0.915  52.783  0.00  0.00    +0.000 A 
ATOM     10  C   UNL     1      18.959  -0.088  52.135  0.00  0.00    +0.000 A 
ATOM     11  C   UNL     1      20.171   0.400  52.810  0.00  0.00    +0.000 C 
ATOM     12  O   UNL     1      20.125   0.712  53.989  0.00  0.00    +0.000 OA
ENDROOT
BRANCH   6  13
ATOM     13  O   UNL     1      17.000   0.800  49.150  0.00  0.00    +0.000 OA
ATOM     14  H   UNL     1      17.464   1.534  48.797  0.00  0.00    +0.000 HD
ENDBRANCH   6  13
BRANCH   9  15
ATOM     15  O   UNL     1      18.373  -1.538  53.948  0.00  0.00    +0.000 OA
ATOM     16  H   UNL     1      18.619  -2.442  53.942  0.00  0.00    +0.000 HD
ENDBRANCH   9  15
BRANCH   1  17
ATOM     17  C   UNL     1      22.745   0.718  52.628  0.00  0.00    +0.000 C 
BRANCH  17  18
ATOM     18  O   UNL     1      23.797   1.160  51.714  0.00  0.00    +0.000 OA
BRANCH  18  19
ATOM     19  C   UNL     1      24.432   2.295  52.072  0.00  0.00    +0.000 C 
ATOM     20  O   UNL     1      23.866   3.319  52.426  0.00  0.00    +0.000 OA
BRANCH  19  22
ATOM     21  C   UNL     1      26.719   2.250  53.178  0.00  0.00    +0.000 C 
ATOM     22  C   UNL     1      25.915   2.182  52.102  0.00  0.00    +0.000 C 
BRANCH  21  23
ATOM     23  C   UNL     1      28.240   2.279  53.168  0.00  0.00    +0.000 C 
BRANCH  23  24
ATOM     24  C   UNL     1      28.958   1.385  54.198  0.00  0.00    +0.000 C 
BRANCH  24  26
ATOM     25  C   UNL     1      29.674  -0.947  53.565  0.00  0.00    +0.000 C 
ATOM     26  C   UNL     1      29.886   0.377  53.568  0.00  0.00    +0.000 C 
ENDBRANCH  24  26
ENDBRANCH  23  24
ENDBRANCH  21  23
ENDBRANCH  19  22
ENDBRANCH  18  19
ENDBRANCH  17  18
BRANCH  17  27
ATOM     27  C   UNL     1      23.294  -0.631  53.167  0.00  0.00    +0.000 C 
BRANCH  27  28
ATOM     28  C   UNL     1      24.245  -0.453  54.330  0.00  0.00    +0.000 C 
ATOM     29  C   UNL     1      25.556  -0.751  54.331  0.00  0.00    +0.000 C 
ATOM     30  C   UNL     1      26.382  -0.560  55.571  0.00  0.00    +0.000 C 
ATOM     31  C   UNL     1      26.267  -1.304  53.131  0.00  0.00    +0.000 C 
ENDBRANCH  27  28
ENDBRANCH  17  27
ENDBRANCH   1  17
TORSDOF 11
ENDMDL
MODEL 9
REMARK VINA RESULT:    -7.168      2.728      6.344
REMARK INTER + INTRA:         -13.325
REMARK INTER:                 -11.634
REMARK INTRA:                  -1.691
REMARK UNBOUND:                -1.967
REMARK  Name = 
REMARK  13 active torsions:
REMARK  status: ('A' for Active; 'I' for Inactive)
REMARK    1  A    between atoms: C_2  and  C_3
REMARK    2  A    between atoms: C_3  and  C_4
REMARK    3  A    between atoms: C_4  and  C_5
REMARK    4  A    between atoms: C_6  and  C_7
REMARK    5  A    between atoms: C_7  and  O_9
REMARK    6  A    between atoms: O_9  and  C_10
REMARK    7  A    between atoms: C_10  and  C_11
REMARK    8  A    between atoms: C_10  and  C_16
REMARK    9  A    between atoms: C_11  and  C_12
REMARK   10  A    between atoms: C_13  and  C_14
REMARK   11  A    between atoms: C_13  and  C_15
REMARK   12  A    between atoms: C_21  and  O_22
REMARK   13  A    between atoms: C_25  and  O_26
REMARK                            x       y       z     vdW  Elec       q    Type
REMARK                         _______ _______ _______ _____ _____    ______ ____
ROOT
ATOM      1  C   UNL     1      23.174   3.035  50.442  0.00  0.00    +0.000 C 
ATOM      2  C   UNL     1      24.355   2.918  49.806  0.00  0.00    +0.000 C 
ATOM      3  C   UNL     1      25.364   4.012  49.791  0.00  0.00    +0.000 C 
ATOM      4  O   UNL     1      26.517   3.824  49.424  0.00  0.00    +0.000 OA
ATOM      5  C   UNL     1      24.914   5.366  50.172  0.00  0.00    +0.000 A 
ATOM      6  C   UNL     1      25.709   6.499  49.973  0.00  0.00    +0.000 A 
ATOM      7  C   UNL     1      25.213   7.771  50.263  0.00  0.00    +0.000 A 
ATOM      8  C   UNL     1      23.905   7.921  50.730  0.00  0.00    +0.000 A 
ATOM      9  C   UNL     1      23.126   6.790  50.963  0.00  0.00    +0.000 A 
ATOM     10  C   UNL     1      23.649   5.513  50.728  0.00  0.00    +0.000 A 
ATOM     11  C   UNL     1      22.980   4.297  51.216  0.00  0.00    +0.000 C 
ATOM     12  O   UNL     1      22.434   4.302  52.308  0.00  0.00    +0.000 OA
ENDROOT
BRANCH   6  13
ATOM     13  O   UNL     1      26.995   6.437  49.510  0.00  0.00    +0.000 OA
ATOM     14  H   UNL     1      27.512   7.218  49.457  0.00  0.00    +0.000 HD
ENDBRANCH   6  13
BRANCH   9  15
ATOM     15  O   UNL     1      21.835   6.933  51.383  0.00  0.00    +0.000 OA
ATOM     16  H   UNL     1      21.570   6.581  52.210  0.00  0.00    +0.000 HD
ENDBRANCH   9  15
BRANCH   1  17
ATOM     17  C   UNL     1      22.155   1.910  50.599  0.00  0.00    +0.000 C 
BRANCH  17  18
ATOM     18  O   UNL     1      22.705   0.750  51.298  0.00  0.00    +0.000 OA
BRANCH  18  19
ATOM     19  C   UNL     1      22.614   0.792  52.645  0.00  0.00    +0.000 C 
ATOM     20  O   UNL     1      21.628   1.178  53.256  0.00  0.00    +0.000 OA
BRANCH  19  22
ATOM     21  C   UNL     1      25.080   0.280  52.972  0.00  0.00    +0.000 C 
ATOM     22  C   UNL     1      23.792   0.227  53.354  0.00  0.00    +0.000 C 
BRANCH  21  23
ATOM     23  C   UNL     1      26.250  -0.431  53.635  0.00  0.00    +0.000 C 
BRANCH  23  24
ATOM     24  C   UNL     1      27.555  -0.529  52.820  0.00  0.00    +0.000 C 
BRANCH  24  26
ATOM     25  C   UNL     1      29.869  -1.084  53.648  0.00  0.00    +0.000 C 
ATOM     26  C   UNL     1      28.793  -0.284  53.646  0.00  0.00    +0.000 C 
ENDBRANCH  24  26
ENDBRANCH  23  24
ENDBRANCH  21  23
ENDBRANCH  19  22
ENDBRANCH  18  19
ENDBRANCH  17  18
BRANCH  17  27
ATOM     27  C   UNL     1      21.581   1.292  49.295  0.00  0.00    +0.000 C 
BRANCH  27  28
ATOM     28  C   UNL     1      20.491   2.140  48.677  0.00  0.00    +0.000 C 
ATOM     29  C   UNL     1      20.640   2.992  47.648  0.00  0.00    +0.000 C 
ATOM     30  C   UNL     1      19.478   3.806  47.153  0.00  0.00    +0.000 C 
ATOM     31  C   UNL     1      21.952   3.206  46.950  0.00  0.00    +0.000 C 
ENDBRANCH  27  28
ENDBRANCH  17  27
ENDBRANCH   1  17
TORSDOF 11
ENDMDL
