MODEL 1
REMARK VINA RESULT:    -6.916      0.000      0.000
REMARK INTER + INTRA:         -12.722
REMARK INTER:                 -11.162
REMARK INTRA:                  -1.561
REMARK UNBOUND:                -1.561
REMARK  Name = 
REMARK  13 active torsions:
REMARK  status: ('A' for Active; 'I' for Inactive)
REMARK    1  A    between atoms: C_1  and  C_2
REMARK    2  A    between atoms: C_2  and  C_3
REMARK    3  A    between atoms: C_3  and  C_4
REMARK    4  A    between atoms: C_4  and  C_5
REMARK    5  A    between atoms: C_5  and  C_6
REMARK    6  A    between atoms: C_6  and  O_7
REMARK    7  A    between atoms: C_6  and  C_8
REMARK    8  A    between atoms: C_12  and  O_13
REMARK    9  A    between atoms: O_13  and  C_14
REMARK   10  A    between atoms: C_14  and  C_15
REMARK   11  A    between atoms: C_19  and  C_20
REMARK   12  A    between atoms: C_20  and  O_22
REMARK   13  A    between atoms: O_22  and  C_23
REMARK                            x       y       z     vdW  Elec       q    Type
REMARK                         _______ _______ _______ _____ _____    ______ ____
ROOT
ATOM      1  C   UNL     1      23.815  -0.240  53.900  0.00  0.00    +0.000 A 
ATOM      2  C   UNL     1      22.800  -1.021  54.468  0.00  0.00    +0.000 A 
ATOM      3  C   UNL     1      21.458  -0.718  54.237  0.00  0.00    +0.000 A 
ATOM      4  C   UNL     1      21.106   0.349  53.408  0.00  0.00    +0.000 A 
ATOM      5  C   UNL     1      22.101   1.089  52.770  0.00  0.00    +0.000 A 
ATOM      6  C   UNL     1      23.447   0.797  53.027  0.00  0.00    +0.000 A 
ENDROOT
BRANCH   1   7
ATOM      7  C   UNL     1      25.260  -0.503  54.266  0.00  0.00    +0.000 C 
BRANCH   7   8
ATOM      8  O   UNL     1      25.294  -1.332  55.428  0.00  0.00    +0.000 OA
ATOM      9  H   UNL     1      25.213  -0.781  56.221  0.00  0.00    +0.000 HD
ENDBRANCH   7   8
BRANCH   7  10
ATOM     10  C   UNL     1      26.088  -1.143  53.135  0.00  0.00    +0.000 C 
BRANCH  10  11
ATOM     11  C   UNL     1      27.284  -0.295  52.688  0.00  0.00    +0.000 C 
BRANCH  11  12
ATOM     12  C   UNL     1      26.834   0.880  51.812  0.00  0.00    +0.000 C 
BRANCH  12  14
ATOM     13  C   UNL     1      28.277   2.278  53.333  0.00  0.00    +0.000 C 
ATOM     14  C   UNL     1      26.979   2.213  52.543  0.00  0.00    +0.000 C 
ENDBRANCH  12  14
ENDBRANCH  11  12
ENDBRANCH  10  11
ENDBRANCH   7  10
ENDBRANCH   1   7
BRANCH   5  15
ATOM     15  O   UNL     1      21.881   2.061  51.834  0.00  0.00    +0.000 OA
BRANCH  15  16
ATOM     16  C   UNL     1      22.404   3.367  52.096  0.00  0.00    +0.000 C 
BRANCH  16  17
ATOM     17  C   UNL     1      23.450   3.870  51.119  0.00  0.00    +0.000 A 
ATOM     18  C   UNL     1      24.142   3.006  50.272  0.00  0.00    +0.000 A 
ATOM     19  C   UNL     1      25.180   3.512  49.490  0.00  0.00    +0.000 A 
ATOM     20  C   UNL     1      25.495   4.866  49.555  0.00  0.00    +0.000 A 
ATOM     21  C   UNL     1      24.736   5.676  50.389  0.00  0.00    +0.000 A 
ATOM     22  N   UNL     1      23.734   5.196  51.180  0.00  0.00    +0.000 NA
BRANCH  21  23
ATOM     23  C   UNL     1      24.995   7.146  50.401  0.00  0.00    +0.000 C 
ATOM     24  O   UNL     1      24.266   7.968  50.940  0.00  0.00    +0.000 OA
BRANCH  23  25
ATOM     25  O   UNL     1      26.162   7.429  49.754  0.00  0.00    +0.000 OA
ATOM     26  C   UNL     1      26.795   8.635  50.169  0.00  0.00    +0.000 C 
ENDBRANCH  23  25
ENDBRANCH  21  23
ENDBRANCH  16  17
ENDBRANCH  15  16
ENDBRANCH   5  15
TORSDOF 11
ENDMDL
MODEL 2
REMARK VINA RESULT:    -6.660      1.951      2.557
REMARK INTER + INTRA:         -12.309
REMARK INTER:                 -11.185
REMARK INTRA:                  -1.124
REMARK UNBOUND:                -1.561
REMARK  Name = 
REMARK  13 active torsions:
REMARK  status: ('A' for Active; 'I' for Inactive)
REMARK    1  A    between atoms: C_1  and  C_2
REMARK    2  A    between atoms: C_2  and  C_3
REMARK    3  A    between atoms: C_3  and  C_4
REMARK    4  A    between atoms: C_4  and  C_5
REMARK    5  A    between atoms: C_5  and  C_6
REMARK    6  A    between atoms: C_6  and  O_7
REMARK    7  A    between atoms: C_6  and  C_8
REMARK    8  A    between atoms: C_12  and  O_13
REMARK    9  A    between atoms: O_13  and  C_14
REMARK   10  A    between atoms: C_14  and  C_15
REMARK   11  A    between atoms: C_19  and  C_20
REMARK   12  A    between atoms: C_20  and  O_22
REMARK   13  A    between atoms: O_22  and  C_23
REMARK                            x       y       z     vdW  Elec       q    Type
REMARK                         _______ _______ _______ _____ _____    ______ ____
ROOT
ATOM      1  C   UNL     1      23.558  -0.615  54.102  0.00  0.00    +0.000 A 
ATOM      2  C   UNL     1      22.785  -1.436  54.934  0.00  0.00    +0.000 A 
ATOM      3  C   UNL     1      21.394  -1.447  54.826  0.00  0.00    +0.000 A 
ATOM      4  C   UNL     1      20.753  -0.664  53.864  0.00  0.00    +0.000 A 
ATOM      5  C   UNL     1      21.508   0.099  52.975  0.00  0.00    +0.000 A 
ATOM      6  C   UNL     1      22.903   0.127  53.105  0.00  0.00    +0.000 A 
ENDROOT
BRANCH   1   7
ATOM      7  C   UNL     1      25.052  -0.518  54.320  0.00  0.00    +0.000 C 
BRANCH   7   8
ATOM      8  O   UNL     1      25.383  -1.193  55.535  0.00  0.00    +0.000 OA
ATOM      9  H   UNL     1      24.704  -1.007  56.202  0.00  0.00    +0.000 HD
ENDBRANCH   7   8
BRANCH   7  10
ATOM     10  C   UNL     1      25.894  -1.080  53.158  0.00  0.00    +0.000 C 
BRANCH  10  11
ATOM     11  C   UNL     1      27.036  -0.157  52.719  0.00  0.00    +0.000 C 
BRANCH  11  12
ATOM     12  C   UNL     1      27.501   0.739  53.873  0.00  0.00    +0.000 C 
BRANCH  12  14
ATOM     13  C   UNL     1      29.603  -0.623  53.591  0.00  0.00    +0.000 C 
ATOM     14  C   UNL     1      28.740   0.168  54.561  0.00  0.00    +0.000 C 
ENDBRANCH  12  14
ENDBRANCH  11  12
ENDBRANCH  10  11
ENDBRANCH   7  10
ENDBRANCH   1   7
BRANCH   5  15
ATOM     15  O   UNL     1      21.005   0.793  51.909  0.00  0.00    +0.000 OA
BRANCH  15  16
ATOM     16  C   UNL     1      21.456   0.422  50.603  0.00  0.00    +0.000 C 
BRANCH  16  17
ATOM     17  C   UNL     1      21.960   1.555  49.729  0.00  0.00    +0.000 A 
ATOM     18  C   UNL     1      21.577   1.682  48.395  0.00  0.00    +0.000 A 
ATOM     19  C   UNL     1      22.174   2.668  47.611  0.00  0.00    +0.000 A 
ATOM     20  C   UNL     1      23.123   3.516  48.174  0.00  0.00    +0.000 A 
ATOM     21  C   UNL     1      23.425   3.360  49.520  0.00  0.00    +0.000 A 
ATOM     22  N   UNL     1      22.871   2.386  50.297  0.00  0.00    +0.000 NA
BRANCH  21  23
ATOM     23  C   UNL     1      24.368   4.320  50.166  0.00  0.00    +0.000 C 
ATOM     24  O   UNL     1      24.096   4.994  51.150  0.00  0.00    +0.000 OA
BRANCH  23  25
ATOM     25  O   UNL     1      25.570   4.314  49.520  0.00  0.00    +0.000 OA
ATOM     26  C   UNL     1      26.446   3.260  49.906  0.00  0.00    +0.000 C 
ENDBRANCH  23  25
ENDBRANCH  21  23
ENDBRANCH  16  17
ENDBRANCH  15  16
ENDBRANCH   5  15
TORSDOF 11
ENDMDL
MODEL 3
REMARK VINA RESULT:    -6.632      1.633      2.196
REMARK INTER + INTRA:         -12.263
REMARK INTER:                 -10.446
REMARK INTRA:                  -1.816
REMARK UNBOUND:                -1.561
REMARK  Name = 
REMARK  13 active torsions:
REMARK  status: ('A' for Active; 'I' for Inactive)
REMARK    1  A    between atoms: C_1  and  C_2
REMARK    2  A    between atoms: C_2  and  C_3
REMARK    3  A    between atoms: C_3  and  C_4
REMARK    4  A    between atoms: C_4  and  C_5
REMARK    5  A    between atoms: C_5  and  C_6
REMARK    6  A    between atoms: C_6  and  O_7
REMARK    7  A    between atoms: C_6  and  C_8
REMARK    8  A    between atoms: C_12  and  O_13
REMARK    9  A    between atoms: O_13  and  C_14
REMARK   10  A    between atoms: C_14  and  C_15
REMARK   11  A    between atoms: C_19  and  C_20
REMARK   12  A    between atoms: C_20  and  O_22
REMARK   13  A    between atoms: O_22  and  C_23
REMARK                            x       y       z     vdW  Elec       q    Type
REMARK                         _______ _______ _______ _____ _____    ______ ____
ROOT
ATOM      1  C   UNL     1      24.269  -0.174  54.034  0.00  0.00    +0.000 A 
ATOM      2  C   UNL     1      23.766  -1.120  54.937  0.00  0.00    +0.000 A 
ATOM      3  C   UNL     1      22.391  -1.280  55.105  0.00  0.00    +0.000 A 
ATOM      4  C   UNL     1      21.493  -0.522  54.351  0.00  0.00    +0.000 A 
ATOM      5  C   UNL     1      21.973   0.368  53.391  0.00  0.00    +0.000 A 
ATOM      6  C   UNL     1      23.355   0.543  53.245  0.00  0.00    +0.000 A 
ENDROOT
BRANCH   1   7
ATOM      7  C   UNL     1      25.760   0.077  53.960  0.00  0.00    +0.000 C 
BRANCH   7   8
ATOM      8  O   UNL     1      26.365  -0.401  55.162  0.00  0.00    +0.000 OA
ATOM      9  H   UNL     1      25.881  -0.055  55.927  0.00  0.00    +0.000 HD
ENDBRANCH   7   8
BRANCH   7  10
ATOM     10  C   UNL     1      26.443  -0.559  52.735  0.00  0.00    +0.000 C 
BRANCH  10  11
ATOM     11  C   UNL     1      26.812   0.449  51.640  0.00  0.00    +0.000 C 
BRANCH  11  12
ATOM     12  C   UNL     1      26.717   1.889  52.156  0.00  0.00    +0.000 C 
BRANCH  12  14
ATOM     13  C   UNL     1      26.428   3.049  49.937  0.00  0.00    +0.000 C 
ATOM     14  C   UNL     1      25.793   2.737  51.283  0.00  0.00    +0.000 C 
ENDBRANCH  12  14
ENDBRANCH  11  12
ENDBRANCH  10  11
ENDBRANCH   7  10
ENDBRANCH   1   7
BRANCH   5  15
ATOM     15  O   UNL     1      21.197   1.058  52.500  0.00  0.00    +0.000 OA
BRANCH  15  16
ATOM     16  C   UNL     1      21.419   0.825  51.106  0.00  0.00    +0.000 C 
BRANCH  16  17
ATOM     17  C   UNL     1      21.907   2.016  50.304  0.00  0.00    +0.000 A 
ATOM     18  C   UNL     1      22.303   1.896  48.974  0.00  0.00    +0.000 A 
ATOM     19  C   UNL     1      22.862   3.000  48.331  0.00  0.00    +0.000 A 
ATOM     20  C   UNL     1      22.997   4.202  49.019  0.00  0.00    +0.000 A 
ATOM     21  C   UNL     1      22.542   4.263  50.329  0.00  0.00    +0.000 A 
ATOM     22  N   UNL     1      22.016   3.188  50.982  0.00  0.00    +0.000 NA
BRANCH  21  23
ATOM     23  C   UNL     1      22.590   5.568  51.052  0.00  0.00    +0.000 C 
ATOM     24  O   UNL     1      21.603   6.230  51.340  0.00  0.00    +0.000 OA
BRANCH  23  25
ATOM     25  O   UNL     1      23.878   5.893  51.361  0.00  0.00    +0.000 OA
ATOM     26  C   UNL     1      24.271   7.203  50.965  0.00  0.00    +0.000 C 
ENDBRANCH  23  25
ENDBRANCH  21  23
ENDBRANCH  16  17
ENDBRANCH  15  16
ENDBRANCH   5  15
TORSDOF 11
ENDMDL
MODEL 4
REMARK VINA RESULT:    -6.611      1.209      1.512
REMARK INTER + INTRA:         -12.230
REMARK INTER:                 -11.189
REMARK INTRA:                  -1.041
REMARK UNBOUND:                -1.561
REMARK  Name = 
REMARK  13 active torsions:
REMARK  status: ('A' for Active; 'I' for Inactive)
REMARK    1  A    between atoms: C_1  and  C_2
REMARK    2  A    between atoms: C_2  and  C_3
REMARK    3  A    between atoms: C_3  and  C_4
REMARK    4  A    between atoms: C_4  and  C_5
REMARK    5  A    between atoms: C_5  and  C_6
REMARK    6  A    between atoms: C_6  and  O_7
REMARK    7  A    between atoms: C_6  and  C_8
REMARK    8  A    between atoms: C_12  and  O_13
REMARK    9  A    between atoms: O_13  and  C_14
REMARK   10  A    between atoms: C_14  and  C_15
REMARK   11  A    between atoms: C_19  and  C_20
REMARK   12  A    between atoms: C_20  and  O_22
REMARK   13  A    between atoms: O_22  and  C_23
REMARK                            x       y       z     vdW  Elec       q    Type
REMARK                         _______ _______ _______ _____ _____    ______ ____
ROOT
ATOM      1  C   UNL     1      23.835  -0.242  53.932  0.00  0.00    +0.000 A 
ATOM      2  C   UNL     1      22.669  -0.716  54.547  0.00  0.00    +0.000 A 
ATOM      3  C   UNL     1      21.418  -0.234  54.164  0.00  0.00    +0.000 A 
ATOM      4  C   UNL     1      21.306   0.705  53.136  0.00  0.00    +0.000 A 
ATOM      5  C   UNL     1      22.448   1.130  52.458  0.00  0.00    +0.000 A 
ATOM      6  C   UNL     1      23.704   0.662  52.865  0.00  0.00    +0.000 A 
ENDROOT
BRANCH   1   7
ATOM      7  C   UNL     1      25.189  -0.678  54.449  0.00  0.00    +0.000 C 
BRANCH   7   8
ATOM      8  O   UNL     1      24.995  -1.626  55.499  0.00  0.00    +0.000 OA
ATOM      9  H   UNL     1      25.279  -2.503  55.199  0.00  0.00    +0.000 HD
ENDBRANCH   7   8
BRANCH   7  10
ATOM     10  C   UNL     1      26.114  -1.270  53.367  0.00  0.00    +0.000 C 
BRANCH  10  11
ATOM     11  C   UNL     1      27.157  -0.281  52.836  0.00  0.00    +0.000 C 
BRANCH  11  12
ATOM     12  C   UNL     1      27.854   0.459  53.984  0.00  0.00    +0.000 C 
BRANCH  12  14
ATOM     13  C   UNL     1      29.855  -0.999  53.509  0.00  0.00    +0.000 C 
ATOM     14  C   UNL     1      29.375   0.405  53.844  0.00  0.00    +0.000 C 
ENDBRANCH  12  14
ENDBRANCH  11  12
ENDBRANCH  10  11
ENDBRANCH   7  10
ENDBRANCH   1   7
BRANCH   5  15
ATOM     15  O   UNL     1      22.452   1.934  51.352  0.00  0.00    +0.000 OA
BRANCH  15  16
ATOM     16  C   UNL     1      22.987   3.254  51.492  0.00  0.00    +0.000 C 
BRANCH  16  17
ATOM     17  C   UNL     1      24.234   3.553  50.682  0.00  0.00    +0.000 A 
ATOM     18  C   UNL     1      25.312   2.671  50.637  0.00  0.00    +0.000 A 
ATOM     19  C   UNL     1      26.478   3.061  49.979  0.00  0.00    +0.000 A 
ATOM     20  C   UNL     1      26.540   4.310  49.367  0.00  0.00    +0.000 A 
ATOM     21  C   UNL     1      25.413   5.119  49.415  0.00  0.00    +0.000 A 
ATOM     22  N   UNL     1      24.273   4.767  50.074  0.00  0.00    +0.000 NA
BRANCH  21  23
ATOM     23  C   UNL     1      25.426   6.421  48.683  0.00  0.00    +0.000 C 
ATOM     24  O   UNL     1      24.508   6.824  47.983  0.00  0.00    +0.000 OA
BRANCH  23  25
ATOM     25  O   UNL     1      26.586   7.094  48.931  0.00  0.00    +0.000 OA
ATOM     26  C   UNL     1      26.488   8.100  49.933  0.00  0.00    +0.000 C 
ENDBRANCH  23  25
ENDBRANCH  21  23
ENDBRANCH  16  17
ENDBRANCH  15  16
ENDBRANCH   5  15
TORSDOF 11
ENDMDL
MODEL 5
REMARK VINA RESULT:    -6.583      2.903      6.828
REMARK INTER + INTRA:         -12.185
REMARK INTER:                 -10.832
REMARK INTRA:                  -1.353
REMARK UNBOUND:                -1.561
REMARK  Name = 
REMARK  13 active torsions:
REMARK  status: ('A' for Active; 'I' for Inactive)
REMARK    1  A    between atoms: C_1  and  C_2
REMARK    2  A    between atoms: C_2  and  C_3
REMARK    3  A    between atoms: C_3  and  C_4
REMARK    4  A    between atoms: C_4  and  C_5
REMARK    5  A    between atoms: C_5  and  C_6
REMARK    6  A    between atoms: C_6  and  O_7
REMARK    7  A    between atoms: C_6  and  C_8
REMARK    8  A    between atoms: C_12  and  O_13
REMARK    9  A    between atoms: O_13  and  C_14
REMARK   10  A    between atoms: C_14  and  C_15
REMARK   11  A    between atoms: C_19  and  C_20
REMARK   12  A    between atoms: C_20  and  O_22
REMARK   13  A    between atoms: O_22  and  C_23
REMARK                            x       y       z     vdW  Elec       q    Type
REMARK                         _______ _______ _______ _____ _____    ______ ____
ROOT
ATOM      1  C   UNL     1      26.178   2.563  51.492  0.00  0.00    +0.000 A 
ATOM      2  C   UNL     1      26.581   3.290  50.364  0.00  0.00    +0.000 A 
ATOM      3  C   UNL     1      25.650   3.681  49.401  0.00  0.00    +0.000 A 
ATOM      4  C   UNL     1      24.296   3.382  49.565  0.00  0.00    +0.000 A 
ATOM      5  C   UNL     1      23.864   2.730  50.719  0.00  0.00    +0.000 A 
ATOM      6  C   UNL     1      24.806   2.317  51.669  0.00  0.00    +0.000 A 
ENDROOT
BRANCH   1   7
ATOM      7  C   UNL     1      27.217   2.036  52.458  0.00  0.00    +0.000 C 
BRANCH   7   8
ATOM      8  O   UNL     1      28.306   2.959  52.507  0.00  0.00    +0.000 OA
ATOM      9  H   UNL     1      29.127   2.480  52.700  0.00  0.00    +0.000 HD
ENDBRANCH   7   8
BRANCH   7  10
ATOM     10  C   UNL     1      26.680   1.776  53.878  0.00  0.00    +0.000 C 
BRANCH  10  11
ATOM     11  C   UNL     1      26.933   0.352  54.385  0.00  0.00    +0.000 C 
BRANCH  11  12
ATOM     12  C   UNL     1      25.889  -0.626  53.835  0.00  0.00    +0.000 C 
BRANCH  12  14
ATOM     13  C   UNL     1      27.768  -2.014  52.889  0.00  0.00    +0.000 C 
ATOM     14  C   UNL     1      26.413  -1.379  52.613  0.00  0.00    +0.000 C 
ENDBRANCH  12  14
ENDBRANCH  11  12
ENDBRANCH  10  11
ENDBRANCH   7  10
ENDBRANCH   1   7
BRANCH   5  15
ATOM     15  O   UNL     1      22.557   2.508  51.055  0.00  0.00    +0.000 OA
BRANCH  15  16
ATOM     16  C   UNL     1      22.021   1.204  50.813  0.00  0.00    +0.000 C 
BRANCH  16  17
ATOM     17  C   UNL     1      21.530   0.452  52.036  0.00  0.00    +0.000 A 
ATOM     18  C   UNL     1      22.392   0.075  53.063  0.00  0.00    +0.000 A 
ATOM     19  C   UNL     1      21.904  -0.724  54.097  0.00  0.00    +0.000 A 
ATOM     20  C   UNL     1      20.568  -1.115  54.094  0.00  0.00    +0.000 A 
ATOM     21  C   UNL     1      19.756  -0.667  53.062  0.00  0.00    +0.000 A 
ATOM     22  N   UNL     1      20.220   0.094  52.029  0.00  0.00    +0.000 NA
BRANCH  21  23
ATOM     23  C   UNL     1      18.300  -0.995  53.092  0.00  0.00    +0.000 C 
ATOM     24  O   UNL     1      17.816  -1.909  53.745  0.00  0.00    +0.000 OA
BRANCH  23  25
ATOM     25  O   UNL     1      17.599  -0.121  52.314  0.00  0.00    +0.000 OA
ATOM     26  C   UNL     1      16.388  -0.643  51.777  0.00  0.00    +0.000 C 
ENDBRANCH  23  25
ENDBRANCH  21  23
ENDBRANCH  16  17
ENDBRANCH  15  16
ENDBRANCH   5  15
TORSDOF 11
ENDMDL
MODEL 6
REMARK VINA RESULT:    -6.537      1.696      4.249
REMARK INTER + INTRA:         -12.110
REMARK INTER:                 -11.209
REMARK INTRA:                  -0.901
REMARK UNBOUND:                -1.561
REMARK  Name = 
REMARK  13 active torsions:
REMARK  status: ('A' for Active; 'I' for Inactive)
REMARK    1  A    between atoms: C_1  and  C_2
REMARK    2  A    between atoms: C_2  and  C_3
REMARK    3  A    between atoms: C_3  and  C_4
REMARK    4  A    between atoms: C_4  and  C_5
REMARK    5  A    between atoms: C_5  and  C_6
REMARK    6  A    between atoms: C_6  and  O_7
REMARK    7  A    between atoms: C_6  and  C_8
REMARK    8  A    between atoms: C_12  and  O_13
REMARK    9  A    between atoms: O_13  and  C_14
REMARK   10  A    between atoms: C_14  and  C_15
REMARK   11  A    between atoms: C_19  and  C_20
REMARK   12  A    between atoms: C_20  and  O_22
REMARK   13  A    between atoms: O_22  and  C_23
REMARK                            x       y       z     vdW  Elec       q    Type
REMARK                         _______ _______ _______ _____ _____    ______ ____
ROOT
ATOM      1  C   UNL     1      23.756  -0.467  53.851  0.00  0.00    +0.000 A 
ATOM      2  C   UNL     1      25.106  -0.741  54.107  0.00  0.00    +0.000 A 
ATOM      3  C   UNL     1      26.109  -0.132  53.353  0.00  0.00    +0.000 A 
ATOM      4  C   UNL     1      25.783   0.787  52.353  0.00  0.00    +0.000 A 
ATOM      5  C   UNL     1      24.450   1.133  52.137  0.00  0.00    +0.000 A 
ATOM      6  C   UNL     1      23.446   0.499  52.879  0.00  0.00    +0.000 A 
ENDROOT
BRANCH   1   7
ATOM      7  C   UNL     1      22.680  -1.233  54.590  0.00  0.00    +0.000 C 
BRANCH   7   8
ATOM      8  O   UNL     1      23.168  -1.571  55.889  0.00  0.00    +0.000 OA
ATOM      9  H   UNL     1      23.442  -0.764  56.350  0.00  0.00    +0.000 HD
ENDBRANCH   7   8
BRANCH   7  10
ATOM     10  C   UNL     1      21.341  -0.480  54.708  0.00  0.00    +0.000 C 
BRANCH  10  11
ATOM     11  C   UNL     1      20.229  -1.053  53.821  0.00  0.00    +0.000 C 
BRANCH  11  12
ATOM     12  C   UNL     1      19.694   0.005  52.849  0.00  0.00    +0.000 C 
BRANCH  12  14
ATOM     13  C   UNL     1      17.536  -1.266  53.131  0.00  0.00    +0.000 C 
ATOM     14  C   UNL     1      18.400  -0.452  52.179  0.00  0.00    +0.000 C 
ENDBRANCH  12  14
ENDBRANCH  11  12
ENDBRANCH  10  11
ENDBRANCH   7  10
ENDBRANCH   1   7
BRANCH   5  15
ATOM     15  O   UNL     1      24.020   2.116  51.289  0.00  0.00    +0.000 OA
BRANCH  15  16
ATOM     16  C   UNL     1      24.384   3.465  51.596  0.00  0.00    +0.000 C 
BRANCH  16  17
ATOM     17  C   UNL     1      25.227   4.177  50.555  0.00  0.00    +0.000 A 
ATOM     18  C   UNL     1      26.275   3.539  49.894  0.00  0.00    +0.000 A 
ATOM     19  C   UNL     1      27.092   4.283  49.043  0.00  0.00    +0.000 A 
ATOM     20  C   UNL     1      26.838   5.639  48.856  0.00  0.00    +0.000 A 
ATOM     21  C   UNL     1      25.752   6.199  49.513  0.00  0.00    +0.000 A 
ATOM     22  N   UNL     1      24.956   5.495  50.368  0.00  0.00    +0.000 NA
BRANCH  21  23
ATOM     23  C   UNL     1      25.406   7.628  49.251  0.00  0.00    +0.000 C 
ATOM     24  O   UNL     1      25.042   8.416  50.113  0.00  0.00    +0.000 OA
BRANCH  23  25
ATOM     25  O   UNL     1      25.579   7.925  47.931  0.00  0.00    +0.000 OA
ATOM     26  C   UNL     1      26.308   9.122  47.682  0.00  0.00    +0.000 C 
ENDBRANCH  23  25
ENDBRANCH  21  23
ENDBRANCH  16  17
ENDBRANCH  15  16
ENDBRANCH   5  15
TORSDOF 11
ENDMDL
MODEL 7
REMARK VINA RESULT:    -6.445      2.134      6.755
REMARK INTER + INTRA:         -11.962
REMARK INTER:                 -10.286
REMARK INTRA:                  -1.676
REMARK UNBOUND:                -1.561
REMARK  Name = 
REMARK  13 active torsions:
REMARK  status: ('A' for Active; 'I' for Inactive)
REMARK    1  A    between atoms: C_1  and  C_2
REMARK    2  A    between atoms: C_2  and  C_3
REMARK    3  A    between atoms: C_3  and  C_4
REMARK    4  A    between atoms: C_4  and  C_5
REMARK    5  A    between atoms: C_5  and  C_6
REMARK    6  A    between atoms: C_6  and  O_7
REMARK    7  A    between atoms: C_6  and  C_8
REMARK    8  A    between atoms: C_12  and  O_13
REMARK    9  A    between atoms: O_13  and  C_14
REMARK   10  A    between atoms: C_14  and  C_15
REMARK   11  A    between atoms: C_19  and  C_20
REMARK   12  A    between atoms: C_20  and  O_22
REMARK   13  A    between atoms: O_22  and  C_23
REMARK                            x       y       z     vdW  Elec       q    Type
REMARK                         _______ _______ _______ _____ _____    ______ ____
ROOT
ATOM      1  C   UNL     1      23.293   5.922  50.125  0.00  0.00    +0.000 A 
ATOM      2  C   UNL     1      23.031   6.049  48.755  0.00  0.00    +0.000 A 
ATOM      3  C   UNL     1      22.758   4.923  47.977  0.00  0.00    +0.000 A 
ATOM      4  C   UNL     1      22.709   3.655  48.561  0.00  0.00    +0.000 A 
ATOM      5  C   UNL     1      22.889   3.518  49.937  0.00  0.00    +0.000 A 
ATOM      6  C   UNL     1      23.188   4.648  50.708  0.00  0.00    +0.000 A 
ENDROOT
BRANCH   1   7
ATOM      7  C   UNL     1      23.714   7.136  50.926  0.00  0.00    +0.000 C 
BRANCH   7   8
ATOM      8  O   UNL     1      24.327   6.695  52.138  0.00  0.00    +0.000 OA
ATOM      9  H   UNL     1      23.686   6.752  52.863  0.00  0.00    +0.000 HD
ENDBRANCH   7   8
BRANCH   7  10
ATOM     10  C   UNL     1      24.661   8.088  50.171  0.00  0.00    +0.000 C 
BRANCH  10  11
ATOM     11  C   UNL     1      26.103   7.577  50.073  0.00  0.00    +0.000 C 
BRANCH  11  12
ATOM     12  C   UNL     1      26.447   7.159  48.639  0.00  0.00    +0.000 C 
BRANCH  12  14
ATOM     13  C   UNL     1      26.602   4.692  49.136  0.00  0.00    +0.000 C 
ATOM     14  C   UNL     1      27.338   5.918  48.616  0.00  0.00    +0.000 C 
ENDBRANCH  12  14
ENDBRANCH  11  12
ENDBRANCH  10  11
ENDBRANCH   7  10
ENDBRANCH   1   7
BRANCH   5  15
ATOM     15  O   UNL     1      22.727   2.355  50.639  0.00  0.00    +0.000 OA
BRANCH  15  16
ATOM     16  C   UNL     1      22.809   2.425  52.066  0.00  0.00    +0.000 C 
BRANCH  16  17
ATOM     17  C   UNL     1      23.697   1.390  52.731  0.00  0.00    +0.000 A 
ATOM     18  C   UNL     1      23.172   0.254  53.342  0.00  0.00    +0.000 A 
ATOM     19  C   UNL     1      24.029  -0.593  54.045  0.00  0.00    +0.000 A 
ATOM     20  C   UNL     1      25.388  -0.300  54.110  0.00  0.00    +0.000 A 
ATOM     21  C   UNL     1      25.848   0.826  53.441  0.00  0.00    +0.000 A 
ATOM     22  N   UNL     1      25.023   1.680  52.769  0.00  0.00    +0.000 NA
BRANCH  21  23
ATOM     23  C   UNL     1      27.314   1.105  53.418  0.00  0.00    +0.000 C 
ATOM     24  O   UNL     1      27.799   2.217  53.259  0.00  0.00    +0.000 OA
BRANCH  23  25
ATOM     25  O   UNL     1      28.020  -0.044  53.625  0.00  0.00    +0.000 OA
ATOM     26  C   UNL     1      29.051   0.060  54.602  0.00  0.00    +0.000 C 
ENDBRANCH  23  25
ENDBRANCH  21  23
ENDBRANCH  16  17
ENDBRANCH  15  16
ENDBRANCH   5  15
TORSDOF 11
ENDMDL
MODEL 8
REMARK VINA RESULT:    -6.380      2.182      6.457
REMARK INTER + INTRA:         -11.857
REMARK INTER:                 -10.091
REMARK INTRA:                  -1.766
REMARK UNBOUND:                -1.561
REMARK  Name = 
REMARK  13 active torsions:
REMARK  status: ('A' for Active; 'I' for Inactive)
REMARK    1  A    between atoms: C_1  and  C_2
REMARK    2  A    between atoms: C_2  and  C_3
REMARK    3  A    between atoms: C_3  and  C_4
REMARK    4  A    between atoms: C_4  and  C_5
REMARK    5  A    between atoms: C_5  and  C_6
REMARK    6  A    between atoms: C_6  and  O_7
REMARK    7  A    between atoms: C_6  and  C_8
REMARK    8  A    between atoms: C_12  and  O_13
REMARK    9  A    between atoms: O_13  and  C_14
REMARK   10  A    between atoms: C_14  and  C_15
REMARK   11  A    between atoms: C_19  and  C_20
REMARK   12  A    between atoms: C_20  and  O_22
REMARK   13  A    between atoms: O_22  and  C_23
REMARK                            x       y       z     vdW  Elec       q    Type
REMARK                         _______ _______ _______ _____ _____    ______ ____
ROOT
ATOM      1  C   UNL     1      22.653   3.966  49.673  0.00  0.00    +0.000 A 
ATOM      2  C   UNL     1      22.390   3.885  48.300  0.00  0.00    +0.000 A 
ATOM      3  C   UNL     1      22.058   2.665  47.710  0.00  0.00    +0.000 A 
ATOM      4  C   UNL     1      21.951   1.510  48.489  0.00  0.00    +0.000 A 
ATOM      5  C   UNL     1      22.131   1.585  49.869  0.00  0.00    +0.000 A 
ATOM      6  C   UNL     1      22.489   2.808  50.451  0.00  0.00    +0.000 A 
ENDROOT
BRANCH   1   7
ATOM      7  C   UNL     1      23.137   5.269  50.271  0.00  0.00    +0.000 C 
BRANCH   7   8
ATOM      8  O   UNL     1      23.449   5.053  51.648  0.00  0.00    +0.000 OA
ATOM      9  H   UNL     1      22.672   4.695  52.103  0.00  0.00    +0.000 HD
ENDBRANCH   7   8
BRANCH   7  10
ATOM     10  C   UNL     1      24.350   5.882  49.545  0.00  0.00    +0.000 C 
BRANCH  10  11
ATOM     11  C   UNL     1      25.702   5.434  50.112  0.00  0.00    +0.000 C 
BRANCH  11  12
ATOM     12  C   UNL     1      26.461   4.556  49.110  0.00  0.00    +0.000 C 
BRANCH  12  14
ATOM     13  C   UNL     1      26.399   2.899  51.008  0.00  0.00    +0.000 C 
ATOM     14  C   UNL     1      26.397   3.080  49.498  0.00  0.00    +0.000 C 
ENDBRANCH  12  14
ENDBRANCH  11  12
ENDBRANCH  10  11
ENDBRANCH   7  10
ENDBRANCH   1   7
BRANCH   5  15
ATOM     15  O   UNL     1      21.917   0.558  50.747  0.00  0.00    +0.000 OA
BRANCH  15  16
ATOM     16  C   UNL     1      21.752   0.890  52.129  0.00  0.00    +0.000 C 
BRANCH  16  17
ATOM     17  C   UNL     1      22.617   0.114  53.104  0.00  0.00    +0.000 A 
ATOM     18  C   UNL     1      22.067  -0.627  54.148  0.00  0.00    +0.000 A 
ATOM     19  C   UNL     1      22.918  -1.212  55.085  0.00  0.00    +0.000 A 
ATOM     20  C   UNL     1      24.296  -1.062  54.954  0.00  0.00    +0.000 A 
ATOM     21  C   UNL     1      24.776  -0.346  53.865  0.00  0.00    +0.000 A 
ATOM     22  N   UNL     1      23.960   0.254  52.953  0.00  0.00    +0.000 NA
BRANCH  21  23
ATOM     23  C   UNL     1      26.251  -0.255  53.654  0.00  0.00    +0.000 C 
ATOM     24  O   UNL     1      26.822  -0.618  52.635  0.00  0.00    +0.000 OA
BRANCH  23  25
ATOM     25  O   UNL     1      26.853   0.310  54.739  0.00  0.00    +0.000 OA
ATOM     26  C   UNL     1      28.272   0.196  54.757  0.00  0.00    +0.000 C 
ENDBRANCH  23  25
ENDBRANCH  21  23
ENDBRANCH  16  17
ENDBRANCH  15  16
ENDBRANCH   5  15
TORSDOF 11
ENDMDL
MODEL 9
REMARK VINA RESULT:    -6.367      2.523      6.131
REMARK INTER + INTRA:         -11.836
REMARK INTER:                 -10.714
REMARK INTRA:                  -1.122
REMARK UNBOUND:                -1.561
REMARK  Name = 
REMARK  13 active torsions:
REMARK  status: ('A' for Active; 'I' for Inactive)
REMARK    1  A    between atoms: C_1  and  C_2
REMARK    2  A    between atoms: C_2  and  C_3
REMARK    3  A    between atoms: C_3  and  C_4
REMARK    4  A    between atoms: C_4  and  C_5
REMARK    5  A    between atoms: C_5  and  C_6
REMARK    6  A    between atoms: C_6  and  O_7
REMARK    7  A    between atoms: C_6  and  C_8
REMARK    8  A    between atoms: C_12  and  O_13
REMARK    9  A    between atoms: O_13  and  C_14
REMARK   10  A    between atoms: C_14  and  C_15
REMARK   11  A    between atoms: C_19  and  C_20
REMARK   12  A    between atoms: C_20  and  O_22
REMARK   13  A    between atoms: O_22  and  C_23
REMARK                            x       y       z     vdW  Elec       q    Type
REMARK                         _______ _______ _______ _____ _____    ______ ____
ROOT
ATOM      1  C   UNL     1      25.872   2.892  50.747  0.00  0.00    +0.000 A 
ATOM      2  C   UNL     1      26.372   3.872  49.880  0.00  0.00    +0.000 A 
ATOM      3  C   UNL     1      25.505   4.670  49.134  0.00  0.00    +0.000 A 
ATOM      4  C   UNL     1      24.121   4.526  49.267  0.00  0.00    +0.000 A 
ATOM      5  C   UNL     1      23.604   3.612  50.183  0.00  0.00    +0.000 A 
ATOM      6  C   UNL     1      24.480   2.795  50.910  0.00  0.00    +0.000 A 
ENDROOT
BRANCH   1   7
ATOM      7  C   UNL     1      26.827   1.950  51.448  0.00  0.00    +0.000 C 
BRANCH   7   8
ATOM      8  O   UNL     1      27.757   2.723  52.208  0.00  0.00    +0.000 OA
ATOM      9  H   UNL     1      27.954   2.265  53.040  0.00  0.00    +0.000 HD
ENDBRANCH   7   8
BRANCH   7  10
ATOM     10  C   UNL     1      26.135   0.915  52.355  0.00  0.00    +0.000 C 
BRANCH  10  11
ATOM     11  C   UNL     1      27.073  -0.187  52.864  0.00  0.00    +0.000 C 
BRANCH  11  12
ATOM     12  C   UNL     1      27.266  -0.094  54.381  0.00  0.00    +0.000 C 
BRANCH  12  14
ATOM     13  C   UNL     1      29.673  -0.238  53.645  0.00  0.00    +0.000 C 
ATOM     14  C   UNL     1      28.720   0.207  54.744  0.00  0.00    +0.000 C 
ENDBRANCH  12  14
ENDBRANCH  11  12
ENDBRANCH  10  11
ENDBRANCH   7  10
ENDBRANCH   1   7
BRANCH   5  15
ATOM     15  O   UNL     1      22.280   3.480  50.501  0.00  0.00    +0.000 OA
BRANCH  15  16
ATOM     16  C   UNL     1      21.492   2.591  49.704  0.00  0.00    +0.000 C 
BRANCH  16  17
ATOM     17  C   UNL     1      20.682   1.559  50.466  0.00  0.00    +0.000 A 
ATOM     18  C   UNL     1      19.403   1.182  50.062  0.00  0.00    +0.000 A 
ATOM     19  C   UNL     1      18.661   0.325  50.875  0.00  0.00    +0.000 A 
ATOM     20  C   UNL     1      19.214  -0.149  52.061  0.00  0.00    +0.000 A 
ATOM     21  C   UNL     1      20.509   0.234  52.380  0.00  0.00    +0.000 A 
ATOM     22  N   UNL     1      21.241   1.090  51.611  0.00  0.00    +0.000 NA
BRANCH  21  23
ATOM     23  C   UNL     1      21.154  -0.340  53.598  0.00  0.00    +0.000 C 
ATOM     24  O   UNL     1      20.649  -1.208  54.298  0.00  0.00    +0.000 OA
BRANCH  23  25
ATOM     25  O   UNL     1      22.381   0.220  53.795  0.00  0.00    +0.000 OA
ATOM     26  C   UNL     1      23.444  -0.716  53.949  0.00  0.00    +0.000 C 
ENDBRANCH  23  25
ENDBRANCH  21  23
ENDBRANCH  16  17
ENDBRANCH  15  16
ENDBRANCH   5  15
TORSDOF 11
ENDMDL
