MODEL 1
REMARK VINA RESULT:    -6.820      0.000      0.000
REMARK INTER + INTRA:         -14.829
REMARK INTER:                 -12.401
REMARK INTRA:                  -2.428
REMARK UNBOUND:                -2.428
REMARK  Name = 
REMARK  18 active torsions:
REMARK  status: ('A' for Active; 'I' for Inactive)
REMARK    1  A    between atoms: C_1  and  C_2
REMARK    2  A    between atoms: C_2  and  C_3
REMARK    3  A    between atoms: C_3  and  C_4
REMARK    4  A    between atoms: C_4  and  C_5
REMARK    5  A    between atoms: C_5  and  C_6
REMARK    6  A    between atoms: C_5  and  O_7
REMARK    7  A    between atoms: C_5  and  C_8
REMARK    8  A    between atoms: C_8  and  C_9
REMARK    9  A    between atoms: C_10  and  C_11
REMARK   10  A    between atoms: C_12  and  O_13
REMARK   11  A    between atoms: C_17  and  C_18
REMARK   12  A    between atoms: C_18  and  C_19
REMARK   13  A    between atoms: C_19  and  C_20
REMARK   14  A    between atoms: C_21  and  C_22
REMARK   15  A    between atoms: C_22  and  C_23
REMARK   16  A    between atoms: C_23  and  C_24
REMARK   17  A    between atoms: C_24  and  O_26
REMARK   18  A    between atoms: O_26  and  C_27
REMARK                            x       y       z     vdW  Elec       q    Type
REMARK                         _______ _______ _______ _____ _____    ______ ____
ROOT
ATOM      1  C   UNL     1      22.885   3.710  51.717  0.00  0.00    +0.000 C 
ATOM      2  C   UNL     1      22.570   5.214  51.533  0.00  0.00    +0.000 C 
ATOM      3  C   UNL     1      23.404   5.725  50.362  0.00  0.00    +0.000 C 
ATOM      4  C   UNL     1      24.087   4.489  49.862  0.00  0.00    +0.000 C 
ATOM      5  O   UNL     1      25.031   4.507  49.082  0.00  0.00    +0.000 OA
ATOM      6  C   UNL     1      23.444   3.223  50.368  0.00  0.00    +0.000 C 
ENDROOT
BRANCH   1   8
ATOM      7  C   UNL     1      24.684   2.439  52.933  0.00  0.00    +0.000 C 
ATOM      8  C   UNL     1      23.911   3.529  52.817  0.00  0.00    +0.000 C 
BRANCH   7   9
ATOM      9  C   UNL     1      25.629   2.193  54.083  0.00  0.00    +0.000 C 
BRANCH   9  10
ATOM     10  C   UNL     1      27.065   1.839  53.614  0.00  0.00    +0.000 C 
ATOM     11  C   UNL     1      27.186   1.865  52.084  0.00  0.00    +0.000 C 
BRANCH  10  12
ATOM     12  O   UNL     1      27.949   2.843  54.146  0.00  0.00    +0.000 OA
ATOM     13  H   UNL     1      27.445   3.458  54.702  0.00  0.00    +0.000 HD
ENDBRANCH  10  12
BRANCH  10  14
ATOM     14  C   UNL     1      27.543   0.495  54.207  0.00  0.00    +0.000 C 
BRANCH  14  15
ATOM     15  C   UNL     1      27.621  -0.678  53.227  0.00  0.00    +0.000 C 
BRANCH  15  17
ATOM     16  C   UNL     1      30.099  -0.362  53.598  0.00  0.00    +0.000 C 
ATOM     17  C   UNL     1      28.989  -1.360  53.305  0.00  0.00    +0.000 C 
ENDBRANCH  15  17
ENDBRANCH  14  15
ENDBRANCH  10  14
ENDBRANCH   9  10
ENDBRANCH   7   9
ENDBRANCH   1   8
BRANCH   2  18
ATOM     18  O   UNL     1      21.181   5.445  51.308  0.00  0.00    +0.000 OA
ATOM     19  H   UNL     1      21.046   5.741  50.394  0.00  0.00    +0.000 HD
ENDBRANCH   2  18
BRANCH   6  20
ATOM     20  C   UNL     1      22.348   2.753  49.398  0.00  0.00    +0.000 C 
BRANCH  20  21
ATOM     21  C   UNL     1      21.947   1.278  49.548  0.00  0.00    +0.000 C 
BRANCH  21  22
ATOM     22  C   UNL     1      20.787   1.064  50.475  0.00  0.00    +0.000 C 
ATOM     23  C   UNL     1      20.836   0.457  51.672  0.00  0.00    +0.000 C 
BRANCH  23  24
ATOM     24  C   UNL     1      22.053  -0.121  52.332  0.00  0.00    +0.000 C 
BRANCH  24  25
ATOM     25  C   UNL     1      22.038   0.159  53.832  0.00  0.00    +0.000 C 
BRANCH  25  26
ATOM     26  C   UNL     1      21.822  -1.107  54.616  0.00  0.00    +0.000 C 
ATOM     27  O   UNL     1      20.922  -1.913  54.429  0.00  0.00    +0.000 OA
BRANCH  26  28
ATOM     28  O   UNL     1      22.794  -1.227  55.564  0.00  0.00    +0.000 OA
ATOM     29  C   UNL     1      24.121  -1.200  55.039  0.00  0.00    +0.000 C 
ENDBRANCH  26  28
ENDBRANCH  25  26
ENDBRANCH  24  25
ENDBRANCH  23  24
ENDBRANCH  21  22
ENDBRANCH  20  21
ENDBRANCH   6  20
TORSDOF 15
ENDMDL
MODEL 2
REMARK VINA RESULT:    -6.815      2.475      6.247
REMARK INTER + INTRA:         -14.820
REMARK INTER:                 -12.812
REMARK INTRA:                  -2.008
REMARK UNBOUND:                -2.428
REMARK  Name = 
REMARK  18 active torsions:
REMARK  status: ('A' for Active; 'I' for Inactive)
REMARK    1  A    between atoms: C_1  and  C_2
REMARK    2  A    between atoms: C_2  and  C_3
REMARK    3  A    between atoms: C_3  and  C_4
REMARK    4  A    between atoms: C_4  and  C_5
REMARK    5  A    between atoms: C_5  and  C_6
REMARK    6  A    between atoms: C_5  and  O_7
REMARK    7  A    between atoms: C_5  and  C_8
REMARK    8  A    between atoms: C_8  and  C_9
REMARK    9  A    between atoms: C_10  and  C_11
REMARK   10  A    between atoms: C_12  and  O_13
REMARK   11  A    between atoms: C_17  and  C_18
REMARK   12  A    between atoms: C_18  and  C_19
REMARK   13  A    between atoms: C_19  and  C_20
REMARK   14  A    between atoms: C_21  and  C_22
REMARK   15  A    between atoms: C_22  and  C_23
REMARK   16  A    between atoms: C_23  and  C_24
REMARK   17  A    between atoms: C_24  and  O_26
REMARK   18  A    between atoms: O_26  and  C_27
REMARK                            x       y       z     vdW  Elec       q    Type
REMARK                         _______ _______ _______ _____ _____    ______ ____
ROOT
ATOM      1  C   UNL     1      26.760  -0.257  52.697  0.00  0.00    +0.000 C 
ATOM      2  C   UNL     1      27.880  -1.325  52.735  0.00  0.00    +0.000 C 
ATOM      3  C   UNL     1      28.887  -0.906  53.803  0.00  0.00    +0.000 C 
ATOM      4  C   UNL     1      28.266   0.321  54.397  0.00  0.00    +0.000 C 
ATOM      5  O   UNL     1      28.871   1.100  55.123  0.00  0.00    +0.000 OA
ATOM      6  C   UNL     1      26.803   0.456  54.061  0.00  0.00    +0.000 C 
ENDROOT
BRANCH   1   8
ATOM      7  C   UNL     1      26.360   1.883  51.437  0.00  0.00    +0.000 C 
ATOM      8  C   UNL     1      27.022   0.724  51.573  0.00  0.00    +0.000 C 
BRANCH   7   9
ATOM      9  C   UNL     1      26.529   2.818  50.264  0.00  0.00    +0.000 C 
BRANCH   9  10
ATOM     10  C   UNL     1      25.345   3.809  50.113  0.00  0.00    +0.000 C 
ATOM     11  C   UNL     1      24.119   3.138  49.479  0.00  0.00    +0.000 C 
BRANCH  10  12
ATOM     12  O   UNL     1      24.978   4.245  51.435  0.00  0.00    +0.000 OA
ATOM     13  H   UNL     1      24.914   5.213  51.450  0.00  0.00    +0.000 HD
ENDBRANCH  10  12
BRANCH  10  14
ATOM     14  C   UNL     1      25.764   5.084  49.347  0.00  0.00    +0.000 C 
BRANCH  14  15
ATOM     15  C   UNL     1      27.168   5.066  48.736  0.00  0.00    +0.000 C 
BRANCH  15  17
ATOM     16  C   UNL     1      29.018   6.491  47.775  0.00  0.00    +0.000 C 
ATOM     17  C   UNL     1      27.612   6.480  48.356  0.00  0.00    +0.000 C 
ENDBRANCH  15  17
ENDBRANCH  14  15
ENDBRANCH  10  14
ENDBRANCH   9  10
ENDBRANCH   7   9
ENDBRANCH   1   8
BRANCH   2  18
ATOM     18  O   UNL     1      27.366  -2.628  53.004  0.00  0.00    +0.000 OA
ATOM     19  H   UNL     1      27.250  -2.740  53.960  0.00  0.00    +0.000 HD
ENDBRANCH   2  18
BRANCH   6  20
ATOM     20  C   UNL     1      25.942  -0.238  55.129  0.00  0.00    +0.000 C 
BRANCH  20  21
ATOM     21  C   UNL     1      24.778  -1.073  54.572  0.00  0.00    +0.000 C 
BRANCH  21  22
ATOM     22  C   UNL     1      23.587  -1.123  55.483  0.00  0.00    +0.000 C 
ATOM     23  C   UNL     1      22.302  -1.035  55.104  0.00  0.00    +0.000 C 
BRANCH  23  24
ATOM     24  C   UNL     1      21.791  -0.879  53.702  0.00  0.00    +0.000 C 
BRANCH  24  25
ATOM     25  C   UNL     1      21.425   0.575  53.420  0.00  0.00    +0.000 C 
BRANCH  25  26
ATOM     26  C   UNL     1      22.439   1.224  52.517  0.00  0.00    +0.000 C 
ATOM     27  O   UNL     1      23.201   2.126  52.836  0.00  0.00    +0.000 OA
BRANCH  26  28
ATOM     28  O   UNL     1      22.392   0.640  51.286  0.00  0.00    +0.000 OA
ATOM     29  C   UNL     1      21.222   0.963  50.536  0.00  0.00    +0.000 C 
ENDBRANCH  26  28
ENDBRANCH  25  26
ENDBRANCH  24  25
ENDBRANCH  23  24
ENDBRANCH  21  22
ENDBRANCH  20  21
ENDBRANCH   6  20
TORSDOF 15
ENDMDL
MODEL 3
REMARK VINA RESULT:    -6.381      1.452      1.867
REMARK INTER + INTRA:         -14.032
REMARK INTER:                 -11.319
REMARK INTRA:                  -2.713
REMARK UNBOUND:                -2.428
REMARK  Name = 
REMARK  18 active torsions:
REMARK  status: ('A' for Active; 'I' for Inactive)
REMARK    1  A    between atoms: C_1  and  C_2
REMARK    2  A    between atoms: C_2  and  C_3
REMARK    3  A    between atoms: C_3  and  C_4
REMARK    4  A    between atoms: C_4  and  C_5
REMARK    5  A    between atoms: C_5  and  C_6
REMARK    6  A    between atoms: C_5  and  O_7
REMARK    7  A    between atoms: C_5  and  C_8
REMARK    8  A    between atoms: C_8  and  C_9
REMARK    9  A    between atoms: C_10  and  C_11
REMARK   10  A    between atoms: C_12  and  O_13
REMARK   11  A    between atoms: C_17  and  C_18
REMARK   12  A    between atoms: C_18  and  C_19
REMARK   13  A    between atoms: C_19  and  C_20
REMARK   14  A    between atoms: C_21  and  C_22
REMARK   15  A    between atoms: C_22  and  C_23
REMARK   16  A    between atoms: C_23  and  C_24
REMARK   17  A    between atoms: C_24  and  O_26
REMARK   18  A    between atoms: O_26  and  C_27
REMARK                            x       y       z     vdW  Elec       q    Type
REMARK                         _______ _______ _______ _____ _____    ______ ____
ROOT
ATOM      1  C   UNL     1      23.333   4.222  51.651  0.00  0.00    +0.000 C 
ATOM      2  C   UNL     1      23.317   5.766  51.745  0.00  0.00    +0.000 C 
ATOM      3  C   UNL     1      24.395   6.302  50.806  0.00  0.00    +0.000 C 
ATOM      4  C   UNL     1      24.919   5.064  50.145  0.00  0.00    +0.000 C 
ATOM      5  O   UNL     1      25.959   5.032  49.499  0.00  0.00    +0.000 OA
ATOM      6  C   UNL     1      23.997   3.883  50.304  0.00  0.00    +0.000 C 
ENDROOT
BRANCH   1   8
ATOM      7  C   UNL     1      24.880   2.535  52.696  0.00  0.00    +0.000 C 
ATOM      8  C   UNL     1      24.133   3.644  52.801  0.00  0.00    +0.000 C 
BRANCH   7   9
ATOM      9  C   UNL     1      25.592   1.885  53.856  0.00  0.00    +0.000 C 
BRANCH   9  10
ATOM     10  C   UNL     1      25.908   0.388  53.603  0.00  0.00    +0.000 C 
ATOM     11  C   UNL     1      25.915  -0.421  54.908  0.00  0.00    +0.000 C 
BRANCH  10  12
ATOM     12  O   UNL     1      24.862  -0.136  52.763  0.00  0.00    +0.000 OA
ATOM     13  H   UNL     1      24.017   0.273  53.006  0.00  0.00    +0.000 HD
ENDBRANCH  10  12
BRANCH  10  14
ATOM     14  C   UNL     1      27.220   0.208  52.807  0.00  0.00    +0.000 C 
BRANCH  14  15
ATOM     15  C   UNL     1      28.398   1.076  53.257  0.00  0.00    +0.000 C 
BRANCH  15  17
ATOM     16  C   UNL     1      29.352  -1.257  53.411  0.00  0.00    +0.000 C 
ATOM     17  C   UNL     1      29.545   0.207  53.777  0.00  0.00    +0.000 C 
ENDBRANCH  15  17
ENDBRANCH  14  15
ENDBRANCH  10  14
ENDBRANCH   9  10
ENDBRANCH   7   9
ENDBRANCH   1   8
BRANCH   2  18
ATOM     18  O   UNL     1      22.040   6.308  51.413  0.00  0.00    +0.000 OA
ATOM     19  H   UNL     1      21.721   6.857  52.146  0.00  0.00    +0.000 HD
ENDBRANCH   2  18
BRANCH   6  20
ATOM     20  C   UNL     1      22.996   3.825  49.138  0.00  0.00    +0.000 C 
BRANCH  20  21
ATOM     21  C   UNL     1      22.850   2.442  48.486  0.00  0.00    +0.000 C 
BRANCH  21  22
ATOM     22  C   UNL     1      21.502   1.817  48.701  0.00  0.00    +0.000 C 
ATOM     23  C   UNL     1      21.129   1.098  49.772  0.00  0.00    +0.000 C 
BRANCH  23  24
ATOM     24  C   UNL     1      21.970   0.779  50.973  0.00  0.00    +0.000 C 
BRANCH  24  25
ATOM     25  C   UNL     1      21.265   1.208  52.256  0.00  0.00    +0.000 C 
BRANCH  25  26
ATOM     26  C   UNL     1      21.014   0.027  53.156  0.00  0.00    +0.000 C 
ATOM     27  O   UNL     1      19.917  -0.441  53.424  0.00  0.00    +0.000 OA
BRANCH  26  28
ATOM     28  O   UNL     1      22.203  -0.454  53.617  0.00  0.00    +0.000 OA
ATOM     29  C   UNL     1      22.076  -1.363  54.710  0.00  0.00    +0.000 C 
ENDBRANCH  26  28
ENDBRANCH  25  26
ENDBRANCH  24  25
ENDBRANCH  23  24
ENDBRANCH  21  22
ENDBRANCH  20  21
ENDBRANCH   6  20
TORSDOF 15
ENDMDL
MODEL 4
REMARK VINA RESULT:    -6.368      2.000      3.585
REMARK INTER + INTRA:         -14.007
REMARK INTER:                 -11.198
REMARK INTRA:                  -2.809
REMARK UNBOUND:                -2.428
REMARK  Name = 
REMARK  18 active torsions:
REMARK  status: ('A' for Active; 'I' for Inactive)
REMARK    1  A    between atoms: C_1  and  C_2
REMARK    2  A    between atoms: C_2  and  C_3
REMARK    3  A    between atoms: C_3  and  C_4
REMARK    4  A    between atoms: C_4  and  C_5
REMARK    5  A    between atoms: C_5  and  C_6
REMARK    6  A    between atoms: C_5  and  O_7
REMARK    7  A    between atoms: C_5  and  C_8
REMARK    8  A    between atoms: C_8  and  C_9
REMARK    9  A    between atoms: C_10  and  C_11
REMARK   10  A    between atoms: C_12  and  O_13
REMARK   11  A    between atoms: C_17  and  C_18
REMARK   12  A    between atoms: C_18  and  C_19
REMARK   13  A    between atoms: C_19  and  C_20
REMARK   14  A    between atoms: C_21  and  C_22
REMARK   15  A    between atoms: C_22  and  C_23
REMARK   16  A    between atoms: C_23  and  C_24
REMARK   17  A    between atoms: C_24  and  O_26
REMARK   18  A    between atoms: O_26  and  C_27
REMARK                            x       y       z     vdW  Elec       q    Type
REMARK                         _______ _______ _______ _____ _____    ______ ____
ROOT
ATOM      1  C   UNL     1      23.285   3.615  51.700  0.00  0.00    +0.000 C 
ATOM      2  C   UNL     1      22.664   4.991  52.040  0.00  0.00    +0.000 C 
ATOM      3  C   UNL     1      23.539   6.067  51.402  0.00  0.00    +0.000 C 
ATOM      4  C   UNL     1      24.562   5.274  50.648  0.00  0.00    +0.000 C 
ATOM      5  O   UNL     1      25.592   5.758  50.195  0.00  0.00    +0.000 OA
ATOM      6  C   UNL     1      24.156   3.836  50.451  0.00  0.00    +0.000 C 
ENDROOT
BRANCH   1   8
ATOM      7  C   UNL     1      25.144   2.264  52.723  0.00  0.00    +0.000 C 
ATOM      8  C   UNL     1      24.128   3.129  52.861  0.00  0.00    +0.000 C 
BRANCH   7   9
ATOM      9  C   UNL     1      25.921   1.684  53.879  0.00  0.00    +0.000 C 
BRANCH   9  10
ATOM     10  C   UNL     1      26.142   0.155  53.746  0.00  0.00    +0.000 C 
ATOM     11  C   UNL     1      26.456  -0.251  52.299  0.00  0.00    +0.000 C 
BRANCH  10  12
ATOM     12  O   UNL     1      27.281  -0.187  54.558  0.00  0.00    +0.000 OA
ATOM     13  H   UNL     1      27.024  -0.861  55.208  0.00  0.00    +0.000 HD
ENDBRANCH  10  12
BRANCH  10  14
ATOM     14  C   UNL     1      24.953  -0.646  54.324  0.00  0.00    +0.000 C 
BRANCH  14  15
ATOM     15  C   UNL     1      23.702  -0.713  53.444  0.00  0.00    +0.000 C 
BRANCH  15  17
ATOM     16  C   UNL     1      21.526  -1.449  54.493  0.00  0.00    +0.000 C 
ATOM     17  C   UNL     1      22.463  -0.279  54.229  0.00  0.00    +0.000 C 
ENDBRANCH  15  17
ENDBRANCH  14  15
ENDBRANCH  10  14
ENDBRANCH   9  10
ENDBRANCH   7   9
ENDBRANCH   1   8
BRANCH   2  18
ATOM     18  O   UNL     1      21.317   5.097  51.586  0.00  0.00    +0.000 OA
ATOM     19  H   UNL     1      20.875   5.825  52.048  0.00  0.00    +0.000 HD
ENDBRANCH   2  18
BRANCH   6  20
ATOM     20  C   UNL     1      23.375   3.677  49.136  0.00  0.00    +0.000 C 
BRANCH  20  21
ATOM     21  C   UNL     1      23.184   2.224  48.676  0.00  0.00    +0.000 C 
BRANCH  21  22
ATOM     22  C   UNL     1      21.748   1.850  48.452  0.00  0.00    +0.000 C 
ATOM     23  C   UNL     1      20.974   1.151  49.298  0.00  0.00    +0.000 C 
BRANCH  23  24
ATOM     24  C   UNL     1      21.377   0.609  50.637  0.00  0.00    +0.000 C 
BRANCH  24  25
ATOM     25  C   UNL     1      20.148   0.313  51.492  0.00  0.00    +0.000 C 
BRANCH  25  26
ATOM     26  C   UNL     1      19.488   1.586  51.950  0.00  0.00    +0.000 C 
ATOM     27  O   UNL     1      20.056   2.527  52.486  0.00  0.00    +0.000 OA
BRANCH  26  28
ATOM     28  O   UNL     1      18.157   1.538  51.662  0.00  0.00    +0.000 OA
ATOM     29  C   UNL     1      17.724   0.285  51.131  0.00  0.00    +0.000 C 
ENDBRANCH  26  28
ENDBRANCH  25  26
ENDBRANCH  24  25
ENDBRANCH  23  24
ENDBRANCH  21  22
ENDBRANCH  20  21
ENDBRANCH   6  20
TORSDOF 15
ENDMDL
MODEL 5
REMARK VINA RESULT:    -6.270      3.220      5.621
REMARK INTER + INTRA:         -13.829
REMARK INTER:                 -12.129
REMARK INTRA:                  -1.700
REMARK UNBOUND:                -2.428
REMARK  Name = 
REMARK  18 active torsions:
REMARK  status: ('A' for Active; 'I' for Inactive)
REMARK    1  A    between atoms: C_1  and  C_2
REMARK    2  A    between atoms: C_2  and  C_3
REMARK    3  A    between atoms: C_3  and  C_4
REMARK    4  A    between atoms: C_4  and  C_5
REMARK    5  A    between atoms: C_5  and  C_6
REMARK    6  A    between atoms: C_5  and  O_7
REMARK    7  A    between atoms: C_5  and  C_8
REMARK    8  A    between atoms: C_8  and  C_9
REMARK    9  A    between atoms: C_10  and  C_11
REMARK   10  A    between atoms: C_12  and  O_13
REMARK   11  A    between atoms: C_17  and  C_18
REMARK   12  A    between atoms: C_18  and  C_19
REMARK   13  A    between atoms: C_19  and  C_20
REMARK   14  A    between atoms: C_21  and  C_22
REMARK   15  A    between atoms: C_22  and  C_23
REMARK   16  A    between atoms: C_23  and  C_24
REMARK   17  A    between atoms: C_24  and  O_26
REMARK   18  A    between atoms: O_26  and  C_27
REMARK                            x       y       z     vdW  Elec       q    Type
REMARK                         _______ _______ _______ _____ _____    ______ ____
ROOT
ATOM      1  C   UNL     1      24.656   3.105  51.437  0.00  0.00    +0.000 C 
ATOM      2  C   UNL     1      23.876   4.377  51.851  0.00  0.00    +0.000 C 
ATOM      3  C   UNL     1      22.514   4.332  51.165  0.00  0.00    +0.000 C 
ATOM      4  C   UNL     1      22.525   3.005  50.468  0.00  0.00    +0.000 C 
ATOM      5  O   UNL     1      21.713   2.688  49.607  0.00  0.00    +0.000 OA
ATOM      6  C   UNL     1      23.597   2.082  50.987  0.00  0.00    +0.000 C 
ENDROOT
BRANCH   1   8
ATOM      7  C   UNL     1      25.944   4.680  49.957  0.00  0.00    +0.000 C 
ATOM      8  C   UNL     1      25.603   3.429  50.300  0.00  0.00    +0.000 C 
BRANCH   7   9
ATOM      9  C   UNL     1      26.796   5.024  48.761  0.00  0.00    +0.000 C 
BRANCH   9  10
ATOM     10  C   UNL     1      27.032   6.550  48.611  0.00  0.00    +0.000 C 
ATOM     11  C   UNL     1      25.957   7.209  47.736  0.00  0.00    +0.000 C 
BRANCH  10  12
ATOM     12  O   UNL     1      26.947   7.129  49.927  0.00  0.00    +0.000 OA
ATOM     13  H   UNL     1      27.073   6.436  50.594  0.00  0.00    +0.000 HD
ENDBRANCH  10  12
BRANCH  10  14
ATOM     14  C   UNL     1      28.458   6.859  48.103  0.00  0.00    +0.000 C 
BRANCH  14  15
ATOM     15  C   UNL     1      29.437   5.682  48.101  0.00  0.00    +0.000 C 
BRANCH  15  17
ATOM     16  C   UNL     1      31.934   5.432  47.820  0.00  0.00    +0.000 C 
ATOM     17  C   UNL     1      30.819   6.125  48.588  0.00  0.00    +0.000 C 
ENDBRANCH  15  17
ENDBRANCH  14  15
ENDBRANCH  10  14
ENDBRANCH   9  10
ENDBRANCH   7   9
ENDBRANCH   1   8
BRANCH   2  18
ATOM     18  O   UNL     1      23.730   4.477  53.265  0.00  0.00    +0.000 OA
ATOM     19  H   UNL     1      23.510   5.390  53.505  0.00  0.00    +0.000 HD
ENDBRANCH   2  18
BRANCH   6  20
ATOM     20  C   UNL     1      23.054   1.230  52.145  0.00  0.00    +0.000 C 
BRANCH  20  21
ATOM     21  C   UNL     1      24.039   1.024  53.306  0.00  0.00    +0.000 C 
BRANCH  21  22
ATOM     22  C   UNL     1      24.616  -0.360  53.365  0.00  0.00    +0.000 C 
ATOM     23  C   UNL     1      25.793  -0.746  52.847  0.00  0.00    +0.000 C 
BRANCH  23  24
ATOM     24  C   UNL     1      26.775   0.121  52.116  0.00  0.00    +0.000 C 
BRANCH  24  25
ATOM     25  C   UNL     1      27.416   1.130  53.064  0.00  0.00    +0.000 C 
BRANCH  25  26
ATOM     26  C   UNL     1      28.203   0.435  54.143  0.00  0.00    +0.000 C 
ATOM     27  O   UNL     1      27.756   0.054  55.215  0.00  0.00    +0.000 OA
BRANCH  26  28
ATOM     28  O   UNL     1      29.494   0.279  53.735  0.00  0.00    +0.000 OA
ATOM     29  C   UNL     1      29.865  -1.077  53.488  0.00  0.00    +0.000 C 
ENDBRANCH  26  28
ENDBRANCH  25  26
ENDBRANCH  24  25
ENDBRANCH  23  24
ENDBRANCH  21  22
ENDBRANCH  20  21
ENDBRANCH   6  20
TORSDOF 15
ENDMDL
MODEL 6
REMARK VINA RESULT:    -6.257      1.956      6.033
REMARK INTER + INTRA:         -13.805
REMARK INTER:                 -11.267
REMARK INTRA:                  -2.539
REMARK UNBOUND:                -2.428
REMARK  Name = 
REMARK  18 active torsions:
REMARK  status: ('A' for Active; 'I' for Inactive)
REMARK    1  A    between atoms: C_1  and  C_2
REMARK    2  A    between atoms: C_2  and  C_3
REMARK    3  A    between atoms: C_3  and  C_4
REMARK    4  A    between atoms: C_4  and  C_5
REMARK    5  A    between atoms: C_5  and  C_6
REMARK    6  A    between atoms: C_5  and  O_7
REMARK    7  A    between atoms: C_5  and  C_8
REMARK    8  A    between atoms: C_8  and  C_9
REMARK    9  A    between atoms: C_10  and  C_11
REMARK   10  A    between atoms: C_12  and  O_13
REMARK   11  A    between atoms: C_17  and  C_18
REMARK   12  A    between atoms: C_18  and  C_19
REMARK   13  A    between atoms: C_19  and  C_20
REMARK   14  A    between atoms: C_21  and  C_22
REMARK   15  A    between atoms: C_22  and  C_23
REMARK   16  A    between atoms: C_23  and  C_24
REMARK   17  A    between atoms: C_24  and  O_26
REMARK   18  A    between atoms: O_26  and  C_27
REMARK                            x       y       z     vdW  Elec       q    Type
REMARK                         _______ _______ _______ _____ _____    ______ ____
ROOT
ATOM      1  C   UNL     1      23.545   2.471  49.981  0.00  0.00    +0.000 C 
ATOM      2  C   UNL     1      23.004   3.898  49.725  0.00  0.00    +0.000 C 
ATOM      3  C   UNL     1      23.066   4.663  51.044  0.00  0.00    +0.000 C 
ATOM      4  C   UNL     1      23.722   3.689  51.975  0.00  0.00    +0.000 C 
ATOM      5  O   UNL     1      23.740   3.825  53.192  0.00  0.00    +0.000 OA
ATOM      6  C   UNL     1      24.413   2.564  51.249  0.00  0.00    +0.000 C 
ENDROOT
BRANCH   1   8
ATOM      7  C   UNL     1      21.122   1.804  49.873  0.00  0.00    +0.000 C 
ATOM      8  C   UNL     1      22.392   1.512  50.192  0.00  0.00    +0.000 C 
BRANCH   7   9
ATOM      9  C   UNL     1      19.948   0.907  50.179  0.00  0.00    +0.000 C 
BRANCH   9  10
ATOM     10  C   UNL     1      19.438   1.063  51.635  0.00  0.00    +0.000 C 
ATOM     11  C   UNL     1      19.559   2.511  52.129  0.00  0.00    +0.000 C 
BRANCH  10  12
ATOM     12  O   UNL     1      18.042   0.708  51.642  0.00  0.00    +0.000 OA
ATOM     13  H   UNL     1      17.583   1.213  52.331  0.00  0.00    +0.000 HD
ENDBRANCH  10  12
BRANCH  10  14
ATOM     14  C   UNL     1      20.132   0.068  52.592  0.00  0.00    +0.000 C 
BRANCH  14  15
ATOM     15  C   UNL     1      20.995   0.691  53.693  0.00  0.00    +0.000 C 
BRANCH  15  17
ATOM     16  C   UNL     1      22.718  -0.985  54.467  0.00  0.00    +0.000 C 
ATOM     17  C   UNL     1      22.446   0.219  53.577  0.00  0.00    +0.000 C 
ENDBRANCH  15  17
ENDBRANCH  14  15
ENDBRANCH  10  14
ENDBRANCH   9  10
ENDBRANCH   7   9
ENDBRANCH   1   8
BRANCH   2  18
ATOM     18  O   UNL     1      23.741   4.575  48.710  0.00  0.00    +0.000 OA
ATOM     19  H   UNL     1      23.303   4.452  47.854  0.00  0.00    +0.000 HD
ENDBRANCH   2  18
BRANCH   6  20
ATOM     20  C   UNL     1      25.875   2.938  50.951  0.00  0.00    +0.000 C 
BRANCH  20  21
ATOM     21  C   UNL     1      26.917   1.987  51.560  0.00  0.00    +0.000 C 
BRANCH  21  22
ATOM     22  C   UNL     1      26.379   0.619  51.858  0.00  0.00    +0.000 C 
ATOM     23  C   UNL     1      26.270   0.063  53.076  0.00  0.00    +0.000 C 
BRANCH  23  24
ATOM     24  C   UNL     1      26.654   0.692  54.383  0.00  0.00    +0.000 C 
BRANCH  24  25
ATOM     25  C   UNL     1      27.980   0.129  54.885  0.00  0.00    +0.000 C 
BRANCH  25  26
ATOM     26  C   UNL     1      29.144   0.887  54.304  0.00  0.00    +0.000 C 
ATOM     27  O   UNL     1      29.517   1.996  54.660  0.00  0.00    +0.000 OA
BRANCH  26  28
ATOM     28  O   UNL     1      29.731   0.141  53.327  0.00  0.00    +0.000 OA
ATOM     29  C   UNL     1      30.056  -1.189  53.730  0.00  0.00    +0.000 C 
ENDBRANCH  26  28
ENDBRANCH  25  26
ENDBRANCH  24  25
ENDBRANCH  23  24
ENDBRANCH  21  22
ENDBRANCH  20  21
ENDBRANCH   6  20
TORSDOF 15
ENDMDL
MODEL 7
REMARK VINA RESULT:    -6.083      1.822      5.769
REMARK INTER + INTRA:         -13.490
REMARK INTER:                 -11.207
REMARK INTRA:                  -2.282
REMARK UNBOUND:                -2.428
REMARK  Name = 
REMARK  18 active torsions:
REMARK  status: ('A' for Active; 'I' for Inactive)
REMARK    1  A    between atoms: C_1  and  C_2
REMARK    2  A    between atoms: C_2  and  C_3
REMARK    3  A    between atoms: C_3  and  C_4
REMARK    4  A    between atoms: C_4  and  C_5
REMARK    5  A    between atoms: C_5  and  C_6
REMARK    6  A    between atoms: C_5  and  O_7
REMARK    7  A    between atoms: C_5  and  C_8
REMARK    8  A    between atoms: C_8  and  C_9
REMARK    9  A    between atoms: C_10  and  C_11
REMARK   10  A    between atoms: C_12  and  O_13
REMARK   11  A    between atoms: C_17  and  C_18
REMARK   12  A    between atoms: C_18  and  C_19
REMARK   13  A    between atoms: C_19  and  C_20
REMARK   14  A    between atoms: C_21  and  C_22
REMARK   15  A    between atoms: C_22  and  C_23
REMARK   16  A    between atoms: C_23  and  C_24
REMARK   17  A    between atoms: C_24  and  O_26
REMARK   18  A    between atoms: O_26  and  C_27
REMARK                            x       y       z     vdW  Elec       q    Type
REMARK                         _______ _______ _______ _____ _____    ______ ____
ROOT
ATOM      1  C   UNL     1      23.287   2.316  50.672  0.00  0.00    +0.000 C 
ATOM      2  C   UNL     1      22.065   2.359  49.723  0.00  0.00    +0.000 C 
ATOM      3  C   UNL     1      21.664   3.821  49.546  0.00  0.00    +0.000 C 
ATOM      4  C   UNL     1      22.716   4.561  50.314  0.00  0.00    +0.000 C 
ATOM      5  O   UNL     1      22.622   5.743  50.622  0.00  0.00    +0.000 OA
ATOM      6  C   UNL     1      23.928   3.714  50.606  0.00  0.00    +0.000 C 
ENDROOT
BRANCH   1   8
ATOM      7  C   UNL     1      22.888   0.774  52.619  0.00  0.00    +0.000 C 
ATOM      8  C   UNL     1      22.833   2.003  52.083  0.00  0.00    +0.000 C 
BRANCH   7   9
ATOM      9  C   UNL     1      22.338   0.423  53.979  0.00  0.00    +0.000 C 
BRANCH   9  10
ATOM     10  C   UNL     1      21.135  -0.553  53.907  0.00  0.00    +0.000 C 
ATOM     11  C   UNL     1      21.505  -1.952  54.421  0.00  0.00    +0.000 C 
BRANCH  10  12
ATOM     12  O   UNL     1      20.102  -0.026  54.760  0.00  0.00    +0.000 OA
ATOM     13  H   UNL     1      20.340   0.872  55.040  0.00  0.00    +0.000 HD
ENDBRANCH  10  12
BRANCH  10  14
ATOM     14  C   UNL     1      20.527  -0.604  52.487  0.00  0.00    +0.000 C 
BRANCH  14  15
ATOM     15  C   UNL     1      19.128  -0.002  52.336  0.00  0.00    +0.000 C 
BRANCH  15  17
ATOM     16  C   UNL     1      17.539   0.039  50.374  0.00  0.00    +0.000 C 
ATOM     17  C   UNL     1      18.896   0.479  50.901  0.00  0.00    +0.000 C 
ENDBRANCH  15  17
ENDBRANCH  14  15
ENDBRANCH  10  14
ENDBRANCH   9  10
ENDBRANCH   7   9
ENDBRANCH   1   8
BRANCH   2  18
ATOM     18  O   UNL     1      22.346   1.753  48.463  0.00  0.00    +0.000 OA
ATOM     19  H   UNL     1      21.632   1.956  47.840  0.00  0.00    +0.000 HD
ENDBRANCH   2  18
BRANCH   6  20
ATOM     20  C   UNL     1      24.960   3.849  49.475  0.00  0.00    +0.000 C 
BRANCH  20  21
ATOM     21  C   UNL     1      26.201   2.957  49.628  0.00  0.00    +0.000 C 
BRANCH  21  22
ATOM     22  C   UNL     1      26.824   3.024  50.992  0.00  0.00    +0.000 C 
ATOM     23  C   UNL     1      26.918   2.009  51.866  0.00  0.00    +0.000 C 
BRANCH  23  24
ATOM     24  C   UNL     1      26.432   0.604  51.661  0.00  0.00    +0.000 C 
BRANCH  24  25
ATOM     25  C   UNL     1      27.159  -0.360  52.594  0.00  0.00    +0.000 C 
BRANCH  25  26
ATOM     26  C   UNL     1      26.515  -0.387  53.954  0.00  0.00    +0.000 C 
ATOM     27  O   UNL     1      25.456  -0.934  54.227  0.00  0.00    +0.000 OA
BRANCH  26  28
ATOM     28  O   UNL     1      27.301   0.281  54.843  0.00  0.00    +0.000 OA
ATOM     29  C   UNL     1      28.696   0.015  54.697  0.00  0.00    +0.000 C 
ENDBRANCH  26  28
ENDBRANCH  25  26
ENDBRANCH  24  25
ENDBRANCH  23  24
ENDBRANCH  21  22
ENDBRANCH  20  21
ENDBRANCH   6  20
TORSDOF 15
ENDMDL
MODEL 8
REMARK VINA RESULT:    -6.069      3.447      7.071
REMARK INTER + INTRA:         -13.464
REMARK INTER:                 -11.914
REMARK INTRA:                  -1.550
REMARK UNBOUND:                -2.428
REMARK  Name = 
REMARK  18 active torsions:
REMARK  status: ('A' for Active; 'I' for Inactive)
REMARK    1  A    between atoms: C_1  and  C_2
REMARK    2  A    between atoms: C_2  and  C_3
REMARK    3  A    between atoms: C_3  and  C_4
REMARK    4  A    between atoms: C_4  and  C_5
REMARK    5  A    between atoms: C_5  and  C_6
REMARK    6  A    between atoms: C_5  and  O_7
REMARK    7  A    between atoms: C_5  and  C_8
REMARK    8  A    between atoms: C_8  and  C_9
REMARK    9  A    between atoms: C_10  and  C_11
REMARK   10  A    between atoms: C_12  and  O_13
REMARK   11  A    between atoms: C_17  and  C_18
REMARK   12  A    between atoms: C_18  and  C_19
REMARK   13  A    between atoms: C_19  and  C_20
REMARK   14  A    between atoms: C_21  and  C_22
REMARK   15  A    between atoms: C_22  and  C_23
REMARK   16  A    between atoms: C_23  and  C_24
REMARK   17  A    between atoms: C_24  and  O_26
REMARK   18  A    between atoms: O_26  and  C_27
REMARK                            x       y       z     vdW  Elec       q    Type
REMARK                         _______ _______ _______ _____ _____    ______ ____
ROOT
ATOM      1  C   UNL     1      24.141   2.846  50.956  0.00  0.00    +0.000 C 
ATOM      2  C   UNL     1      22.711   2.275  50.807  0.00  0.00    +0.000 C 
ATOM      3  C   UNL     1      21.725   3.401  51.109  0.00  0.00    +0.000 C 
ATOM      4  C   UNL     1      22.615   4.587  51.324  0.00  0.00    +0.000 C 
ATOM      5  O   UNL     1      22.232   5.636  51.826  0.00  0.00    +0.000 OA
ATOM      6  C   UNL     1      24.010   4.372  50.797  0.00  0.00    +0.000 C 
ENDROOT
BRANCH   1   8
ATOM      7  C   UNL     1      25.926   1.999  52.513  0.00  0.00    +0.000 C 
ATOM      8  C   UNL     1      24.696   2.498  52.322  0.00  0.00    +0.000 C 
BRANCH   7   9
ATOM      9  C   UNL     1      26.453   1.542  53.851  0.00  0.00    +0.000 C 
BRANCH   9  10
ATOM     10  C   UNL     1      26.459  -0.002  53.998  0.00  0.00    +0.000 C 
ATOM     11  C   UNL     1      26.841  -0.697  52.683  0.00  0.00    +0.000 C 
BRANCH  10  12
ATOM     12  O   UNL     1      27.457  -0.336  54.981  0.00  0.00    +0.000 OA
ATOM     13  H   UNL     1      27.043  -0.390  55.856  0.00  0.00    +0.000 HD
ENDBRANCH  10  12
BRANCH  10  14
ATOM     14  C   UNL     1      25.118  -0.527  54.559  0.00  0.00    +0.000 C 
BRANCH  14  15
ATOM     15  C   UNL     1      24.041  -0.852  53.521  0.00  0.00    +0.000 C 
BRANCH  15  17
ATOM     16  C   UNL     1      21.820  -1.232  54.662  0.00  0.00    +0.000 C 
ATOM     17  C   UNL     1      22.699  -0.235  53.921  0.00  0.00    +0.000 C 
ENDBRANCH  15  17
ENDBRANCH  14  15
ENDBRANCH  10  14
ENDBRANCH   9  10
ENDBRANCH   7   9
ENDBRANCH   1   8
BRANCH   2  18
ATOM     18  O   UNL     1      22.484   1.737  49.506  0.00  0.00    +0.000 OA
ATOM     19  H   UNL     1      23.267   1.242  49.219  0.00  0.00    +0.000 HD
ENDBRANCH   2  18
BRANCH   6  20
ATOM     20  C   UNL     1      24.106   4.834  49.333  0.00  0.00    +0.000 C 
BRANCH  20  21
ATOM     21  C   UNL     1      25.427   5.525  48.963  0.00  0.00    +0.000 C 
BRANCH  21  22
ATOM     22  C   UNL     1      26.627   4.632  49.089  0.00  0.00    +0.000 C 
ATOM     23  C   UNL     1      27.877   4.934  48.706  0.00  0.00    +0.000 C 
BRANCH  23  24
ATOM     24  C   UNL     1      28.336   6.219  48.084  0.00  0.00    +0.000 C 
BRANCH  24  25
ATOM     25  C   UNL     1      29.855   6.236  47.936  0.00  0.00    +0.000 C 
BRANCH  25  26
ATOM     26  C   UNL     1      30.460   7.384  48.699  0.00  0.00    +0.000 C 
ATOM     27  O   UNL     1      30.084   8.546  48.649  0.00  0.00    +0.000 OA
BRANCH  26  28
ATOM     28  O   UNL     1      31.488   6.926  49.469  0.00  0.00    +0.000 OA
ATOM     29  C   UNL     1      32.020   5.673  49.041  0.00  0.00    +0.000 C 
ENDBRANCH  26  28
ENDBRANCH  25  26
ENDBRANCH  24  25
ENDBRANCH  23  24
ENDBRANCH  21  22
ENDBRANCH  20  21
ENDBRANCH   6  20
TORSDOF 15
ENDMDL
MODEL 9
REMARK VINA RESULT:    -6.043      2.028      2.580
REMARK INTER + INTRA:         -13.416
REMARK INTER:                 -11.360
REMARK INTRA:                  -2.056
REMARK UNBOUND:                -2.428
REMARK  Name = 
REMARK  18 active torsions:
REMARK  status: ('A' for Active; 'I' for Inactive)
REMARK    1  A    between atoms: C_1  and  C_2
REMARK    2  A    between atoms: C_2  and  C_3
REMARK    3  A    between atoms: C_3  and  C_4
REMARK    4  A    between atoms: C_4  and  C_5
REMARK    5  A    between atoms: C_5  and  C_6
REMARK    6  A    between atoms: C_5  and  O_7
REMARK    7  A    between atoms: C_5  and  C_8
REMARK    8  A    between atoms: C_8  and  C_9
REMARK    9  A    between atoms: C_10  and  C_11
REMARK   10  A    between atoms: C_12  and  O_13
REMARK   11  A    between atoms: C_17  and  C_18
REMARK   12  A    between atoms: C_18  and  C_19
REMARK   13  A    between atoms: C_19  and  C_20
REMARK   14  A    between atoms: C_21  and  C_22
REMARK   15  A    between atoms: C_22  and  C_23
REMARK   16  A    between atoms: C_23  and  C_24
REMARK   17  A    between atoms: C_24  and  O_26
REMARK   18  A    between atoms: O_26  and  C_27
REMARK                            x       y       z     vdW  Elec       q    Type
REMARK                         _______ _______ _______ _____ _____    ______ ____
ROOT
ATOM      1  C   UNL     1      23.213   4.550  51.743  0.00  0.00    +0.000 C 
ATOM      2  C   UNL     1      23.496   6.066  51.616  0.00  0.00    +0.000 C 
ATOM      3  C   UNL     1      24.502   6.259  50.485  0.00  0.00    +0.000 C 
ATOM      4  C   UNL     1      24.685   4.872  49.948  0.00  0.00    +0.000 C 
ATOM      5  O   UNL     1      25.593   4.556  49.189  0.00  0.00    +0.000 OA
ATOM      6  C   UNL     1      23.594   3.929  50.386  0.00  0.00    +0.000 C 
ENDROOT
BRANCH   1   8
ATOM      7  C   UNL     1      24.604   2.738  52.795  0.00  0.00    +0.000 C 
ATOM      8  C   UNL     1      24.053   3.960  52.855  0.00  0.00    +0.000 C 
BRANCH   7   9
ATOM      9  C   UNL     1      25.349   2.091  53.937  0.00  0.00    +0.000 C 
BRANCH   9  10
ATOM     10  C   UNL     1      26.835   1.803  53.597  0.00  0.00    +0.000 C 
ATOM     11  C   UNL     1      27.086   1.823  52.082  0.00  0.00    +0.000 C 
BRANCH  10  12
ATOM     12  O   UNL     1      27.623   2.852  54.190  0.00  0.00    +0.000 OA
ATOM     13  H   UNL     1      27.574   3.646  53.635  0.00  0.00    +0.000 HD
ENDBRANCH  10  12
BRANCH  10  14
ATOM     14  C   UNL     1      27.323   0.488  54.244  0.00  0.00    +0.000 C 
BRANCH  14  15
ATOM     15  C   UNL     1      28.757   0.498  54.779  0.00  0.00    +0.000 C 
BRANCH  15  17
ATOM     16  C   UNL     1      29.676  -1.420  53.416  0.00  0.00    +0.000 C 
ATOM     17  C   UNL     1      29.745   0.075  53.689  0.00  0.00    +0.000 C 
ENDBRANCH  15  17
ENDBRANCH  14  15
ENDBRANCH  10  14
ENDBRANCH   9  10
ENDBRANCH   7   9
ENDBRANCH   1   8
BRANCH   2  18
ATOM     18  O   UNL     1      22.307   6.813  51.370  0.00  0.00    +0.000 OA
ATOM     19  H   UNL     1      21.783   6.865  52.184  0.00  0.00    +0.000 HD
ENDBRANCH   2  18
BRANCH   6  20
ATOM     20  C   UNL     1      22.438   3.941  49.373  0.00  0.00    +0.000 C 
BRANCH  20  21
ATOM     21  C   UNL     1      21.516   2.714  49.438  0.00  0.00    +0.000 C 
BRANCH  21  22
ATOM     22  C   UNL     1      22.214   1.461  49.882  0.00  0.00    +0.000 C 
ATOM     23  C   UNL     1      22.004   0.809  51.036  0.00  0.00    +0.000 C 
BRANCH  23  24
ATOM     24  C   UNL     1      21.029   1.187  52.113  0.00  0.00    +0.000 C 
BRANCH  24  25
ATOM     25  C   UNL     1      19.892   0.173  52.192  0.00  0.00    +0.000 C 
BRANCH  25  26
ATOM     26  C   UNL     1      18.596   0.776  51.717  0.00  0.00    +0.000 C 
ATOM     27  O   UNL     1      18.411   1.959  51.471  0.00  0.00    +0.000 OA
BRANCH  26  28
ATOM     28  O   UNL     1      17.659  -0.206  51.587  0.00  0.00    +0.000 OA
ATOM     29  C   UNL     1      17.634  -1.131  52.674  0.00  0.00    +0.000 C 
ENDBRANCH  26  28
ENDBRANCH  25  26
ENDBRANCH  24  25
ENDBRANCH  23  24
ENDBRANCH  21  22
ENDBRANCH  20  21
ENDBRANCH   6  20
TORSDOF 15
ENDMDL
