MODEL 1
REMARK VINA RESULT:    -9.305      0.000      0.000
REMARK INTER + INTRA:         -10.862
REMARK INTER:                 -10.936
REMARK INTRA:                   0.074
REMARK UNBOUND:                 0.074
REMARK  Name = 
REMARK  3 active torsions:
REMARK  status: ('A' for Active; 'I' for Inactive)
REMARK    1  A    between atoms: C_2  and  C_5
REMARK    2  A    between atoms: C_17  and  S_18
REMARK    3  A    between atoms: S_18  and  C_19
REMARK                            x       y       z     vdW  Elec       q    Type
REMARK                         _______ _______ _______ _____ _____    ______ ____
ROOT
ATOM      1  C   UNL     1      27.516   0.325  53.389  0.00  0.00    +0.000 A 
ATOM      2  C   UNL     1      26.546  -0.665  53.558  0.00  0.00    +0.000 A 
ATOM      3  C   UNL     1      25.237  -0.453  53.101  0.00  0.00    +0.000 A 
ATOM      4  C   UNL     1      24.863   0.735  52.477  0.00  0.00    +0.000 A 
ATOM      5  N   UNL     1      23.591   0.923  52.056  0.00  0.00    +0.000 NA
ATOM      6  C   UNL     1      23.266   2.094  51.445  0.00  0.00    +0.000 A 
ATOM      7  N   UNL     1      21.958   2.238  51.006  0.00  0.00    +0.000 N 
ATOM      8  C   UNL     1      20.878   1.501  51.679  0.00  0.00    +0.000 C 
ATOM      9  C   UNL     1      20.120   0.551  50.724  0.00  0.00    +0.000 C 
ATOM     10  N   UNL     1      19.693   1.187  49.460  0.00  0.00    +0.000 N 
ATOM     11  C   UNL     1      20.892   1.730  48.800  0.00  0.00    +0.000 C 
ATOM     12  C   UNL     1      21.665   2.751  49.661  0.00  0.00    +0.000 C 
ATOM     13  C   UNL     1      24.268   3.091  51.315  0.00  0.00    +0.000 A 
ATOM     14  N   UNL     1      25.554   2.897  51.726  0.00  0.00    +0.000 NA
ATOM     15  C   UNL     1      25.844   1.729  52.301  0.00  0.00    +0.000 A 
ATOM     16  C   UNL     1      27.142   1.516  52.749  0.00  0.00    +0.000 A 
ATOM     17  H   UNL     1      19.034   1.942  49.657  0.00  0.00    +0.000 HD
ATOM     18  H   UNL     1      19.232   0.506  48.857  0.00  0.00    +0.000 HD
ENDROOT
BRANCH   1  20
ATOM     19  F   UNL     1      29.009  -0.316  55.158  0.00  0.00    +0.000 F 
ATOM     20  C   UNL     1      28.932   0.155  53.883  0.00  0.00    +0.000 C 
ATOM     21  F   UNL     1      29.626   1.326  53.876  0.00  0.00    +0.000 F 
ATOM     22  F   UNL     1      29.650  -0.712  53.119  0.00  0.00    +0.000 F 
ENDBRANCH   1  20
BRANCH  13  23
ATOM     23  S   UNL     1      24.010   4.718  50.626  0.00  0.00    +0.000 S 
BRANCH  23  24
ATOM     24  C   UNL     1      25.551   5.111  49.822  0.00  0.00    +0.000 A 
ATOM     25  C   UNL     1      26.485   4.149  49.424  0.00  0.00    +0.000 A 
ATOM     26  C   UNL     1      27.610   4.517  48.679  0.00  0.00    +0.000 A 
ATOM     27  C   UNL     1      27.810   5.848  48.323  0.00  0.00    +0.000 A 
ATOM     28  C   UNL     1      26.899   6.818  48.728  0.00  0.00    +0.000 A 
ATOM     29  C   UNL     1      25.778   6.451  49.476  0.00  0.00    +0.000 A 
ENDBRANCH  23  24
ENDBRANCH  13  23
TORSDOF 3
ENDMDL
MODEL 2
REMARK VINA RESULT:    -9.160      1.208      1.764
REMARK INTER + INTRA:         -10.692
REMARK INTER:                 -10.297
REMARK INTRA:                  -0.395
REMARK UNBOUND:                 0.074
REMARK  Name = 
REMARK  3 active torsions:
REMARK  status: ('A' for Active; 'I' for Inactive)
REMARK    1  A    between atoms: C_2  and  C_5
REMARK    2  A    between atoms: C_17  and  S_18
REMARK    3  A    between atoms: S_18  and  C_19
REMARK                            x       y       z     vdW  Elec       q    Type
REMARK                         _______ _______ _______ _____ _____    ______ ____
ROOT
ATOM      1  C   UNL     1      27.254   0.728  53.852  0.00  0.00    +0.000 A 
ATOM      2  C   UNL     1      26.480  -0.433  53.895  0.00  0.00    +0.000 A 
ATOM      3  C   UNL     1      25.119  -0.385  53.561  0.00  0.00    +0.000 A 
ATOM      4  C   UNL     1      24.500   0.805  53.185  0.00  0.00    +0.000 A 
ATOM      5  N   UNL     1      23.182   0.831  52.879  0.00  0.00    +0.000 NA
ATOM      6  C   UNL     1      22.615   2.011  52.510  0.00  0.00    +0.000 A 
ATOM      7  N   UNL     1      21.267   1.991  52.182  0.00  0.00    +0.000 N 
ATOM      8  C   UNL     1      20.388   0.970  52.772  0.00  0.00    +0.000 C 
ATOM      9  C   UNL     1      19.717   0.074  51.707  0.00  0.00    +0.000 C 
ATOM     10  N   UNL     1      19.080   0.827  50.606  0.00  0.00    +0.000 N 
ATOM     11  C   UNL     1      20.109   1.677  49.985  0.00  0.00    +0.000 C 
ATOM     12  C   UNL     1      20.775   2.661  50.970  0.00  0.00    +0.000 C 
ATOM     13  C   UNL     1      23.422   3.178  52.504  0.00  0.00    +0.000 A 
ATOM     14  N   UNL     1      24.754   3.151  52.798  0.00  0.00    +0.000 NA
ATOM     15  C   UNL     1      25.284   1.974  53.135  0.00  0.00    +0.000 A 
ATOM     16  C   UNL     1      26.633   1.923  53.460  0.00  0.00    +0.000 A 
ATOM     17  H   UNL     1      18.325   1.407  50.974  0.00  0.00    +0.000 HD
ATOM     18  H   UNL     1      18.685   0.185  49.918  0.00  0.00    +0.000 HD
ENDROOT
BRANCH   1  20
ATOM     19  F   UNL     1      29.222   1.981  54.424  0.00  0.00    +0.000 F 
ATOM     20  C   UNL     1      28.717   0.733  54.224  0.00  0.00    +0.000 C 
ATOM     21  F   UNL     1      29.496   0.165  53.263  0.00  0.00    +0.000 F 
ATOM     22  F   UNL     1      28.966   0.039  55.367  0.00  0.00    +0.000 F 
ENDBRANCH   1  20
BRANCH  13  23
ATOM     23  S   UNL     1      22.839   4.825  52.137  0.00  0.00    +0.000 S 
BRANCH  23  24
ATOM     24  C   UNL     1      24.032   5.474  50.984  0.00  0.00    +0.000 A 
ATOM     25  C   UNL     1      24.568   6.763  51.067  0.00  0.00    +0.000 A 
ATOM     26  C   UNL     1      25.598   7.161  50.208  0.00  0.00    +0.000 A 
ATOM     27  C   UNL     1      26.103   6.272  49.261  0.00  0.00    +0.000 A 
ATOM     28  C   UNL     1      25.566   4.993  49.155  0.00  0.00    +0.000 A 
ATOM     29  C   UNL     1      24.534   4.599  50.010  0.00  0.00    +0.000 A 
ENDBRANCH  23  24
ENDBRANCH  13  23
TORSDOF 3
ENDMDL
MODEL 3
REMARK VINA RESULT:    -9.065      3.199      5.731
REMARK INTER + INTRA:         -10.580
REMARK INTER:                 -10.491
REMARK INTRA:                  -0.089
REMARK UNBOUND:                 0.074
REMARK  Name = 
REMARK  3 active torsions:
REMARK  status: ('A' for Active; 'I' for Inactive)
REMARK    1  A    between atoms: C_2  and  C_5
REMARK    2  A    between atoms: C_17  and  S_18
REMARK    3  A    between atoms: S_18  and  C_19
REMARK                            x       y       z     vdW  Elec       q    Type
REMARK                         _______ _______ _______ _____ _____    ______ ____
ROOT
ATOM      1  C   UNL     1      25.478   4.508  49.611  0.00  0.00    +0.000 A 
ATOM      2  C   UNL     1      24.127   4.566  49.260  0.00  0.00    +0.000 A 
ATOM      3  C   UNL     1      23.216   3.657  49.816  0.00  0.00    +0.000 A 
ATOM      4  C   UNL     1      23.620   2.675  50.718  0.00  0.00    +0.000 A 
ATOM      5  N   UNL     1      22.725   1.800  51.232  0.00  0.00    +0.000 NA
ATOM      6  C   UNL     1      23.157   0.860  52.116  0.00  0.00    +0.000 A 
ATOM      7  N   UNL     1      22.204  -0.003  52.638  0.00  0.00    +0.000 N 
ATOM      8  C   UNL     1      20.992  -0.306  51.863  0.00  0.00    +0.000 C 
ATOM      9  C   UNL     1      19.696   0.096  52.603  0.00  0.00    +0.000 C 
ATOM     10  N   UNL     1      19.631  -0.383  54.000  0.00  0.00    +0.000 N 
ATOM     11  C   UNL     1      20.810   0.137  54.712  0.00  0.00    +0.000 C 
ATOM     12  C   UNL     1      22.152  -0.287  54.079  0.00  0.00    +0.000 C 
ATOM     13  C   UNL     1      24.540   0.809  52.429  0.00  0.00    +0.000 A 
ATOM     14  N   UNL     1      25.440   1.700  51.923  0.00  0.00    +0.000 NA
ATOM     15  C   UNL     1      24.981   2.623  51.076  0.00  0.00    +0.000 A 
ATOM     16  C   UNL     1      25.881   3.528  50.530  0.00  0.00    +0.000 A 
ATOM     17  H   UNL     1      19.637  -1.403  54.017  0.00  0.00    +0.000 HD
ATOM     18  H   UNL     1      18.773  -0.059  54.447  0.00  0.00    +0.000 HD
ENDROOT
BRANCH   1  20
ATOM     19  F   UNL     1      27.683   4.845  48.721  0.00  0.00    +0.000 F 
ATOM     20  C   UNL     1      26.501   5.449  49.023  0.00  0.00    +0.000 C 
ATOM     21  F   UNL     1      26.810   6.470  49.868  0.00  0.00    +0.000 F 
ATOM     22  F   UNL     1      26.073   6.032  47.871  0.00  0.00    +0.000 F 
ENDBRANCH   1  20
BRANCH  13  23
ATOM     23  S   UNL     1      25.306  -0.404  53.492  0.00  0.00    +0.000 S 
BRANCH  23  24
ATOM     24  C   UNL     1      27.037   0.019  53.477  0.00  0.00    +0.000 A 
ATOM     25  C   UNL     1      27.533   1.268  53.865  0.00  0.00    +0.000 A 
ATOM     26  C   UNL     1      28.912   1.487  53.955  0.00  0.00    +0.000 A 
ATOM     27  C   UNL     1      29.805   0.460  53.661  0.00  0.00    +0.000 A 
ATOM     28  C   UNL     1      29.325  -0.782  53.256  0.00  0.00    +0.000 A 
ATOM     29  C   UNL     1      27.949  -0.999  53.162  0.00  0.00    +0.000 A 
ENDBRANCH  23  24
ENDBRANCH  13  23
TORSDOF 3
ENDMDL
MODEL 4
REMARK VINA RESULT:    -8.924      4.137      6.357
REMARK INTER + INTRA:         -10.414
REMARK INTER:                  -9.884
REMARK INTRA:                  -0.530
REMARK UNBOUND:                 0.074
REMARK  Name = 
REMARK  3 active torsions:
REMARK  status: ('A' for Active; 'I' for Inactive)
REMARK    1  A    between atoms: C_2  and  C_5
REMARK    2  A    between atoms: C_17  and  S_18
REMARK    3  A    between atoms: S_18  and  C_19
REMARK                            x       y       z     vdW  Elec       q    Type
REMARK                         _______ _______ _______ _____ _____    ______ ____
ROOT
ATOM      1  C   UNL     1      20.924   0.134  52.676  0.00  0.00    +0.000 A 
ATOM      2  C   UNL     1      21.569  -0.756  53.537  0.00  0.00    +0.000 A 
ATOM      3  C   UNL     1      22.965  -0.734  53.656  0.00  0.00    +0.000 A 
ATOM      4  C   UNL     1      23.748   0.159  52.927  0.00  0.00    +0.000 A 
ATOM      5  N   UNL     1      25.095   0.154  53.048  0.00  0.00    +0.000 NA
ATOM      6  C   UNL     1      25.824   1.047  52.324  0.00  0.00    +0.000 A 
ATOM      7  N   UNL     1      27.201   1.025  52.494  0.00  0.00    +0.000 N 
ATOM      8  C   UNL     1      27.866  -0.221  52.905  0.00  0.00    +0.000 C 
ATOM      9  C   UNL     1      28.628  -0.076  54.242  0.00  0.00    +0.000 C 
ATOM     10  N   UNL     1      29.514   1.106  54.302  0.00  0.00    +0.000 N 
ATOM     11  C   UNL     1      28.691   2.300  54.049  0.00  0.00    +0.000 C 
ATOM     12  C   UNL     1      27.957   2.270  52.692  0.00  0.00    +0.000 C 
ATOM     13  C   UNL     1      25.141   1.917  51.436  0.00  0.00    +0.000 A 
ATOM     14  N   UNL     1      23.782   1.933  51.325  0.00  0.00    +0.000 NA
ATOM     15  C   UNL     1      23.096   1.061  52.064  0.00  0.00    +0.000 A 
ATOM     16  C   UNL     1      21.711   1.042  51.952  0.00  0.00    +0.000 A 
ATOM     17  H   UNL     1      30.243   1.029  53.591  0.00  0.00    +0.000 HD
ATOM     18  H   UNL     1      29.961   1.169  55.217  0.00  0.00    +0.000 HD
ENDROOT
BRANCH   1  20
ATOM     19  F   UNL     1      19.019  -0.442  51.331  0.00  0.00    +0.000 F 
ATOM     20  C   UNL     1      19.426   0.134  52.495  0.00  0.00    +0.000 C 
ATOM     21  F   UNL     1      18.906   1.392  52.490  0.00  0.00    +0.000 F 
ATOM     22  F   UNL     1      18.781  -0.534  53.490  0.00  0.00    +0.000 F 
ENDBRANCH   1  20
BRANCH  13  23
ATOM     23  S   UNL     1      25.929   3.089  50.343  0.00  0.00    +0.000 S 
BRANCH  23  24
ATOM     24  C   UNL     1      24.700   4.353  50.084  0.00  0.00    +0.000 A 
ATOM     25  C   UNL     1      24.410   5.354  51.017  0.00  0.00    +0.000 A 
ATOM     26  C   UNL     1      23.529   6.392  50.694  0.00  0.00    +0.000 A 
ATOM     27  C   UNL     1      22.934   6.440  49.436  0.00  0.00    +0.000 A 
ATOM     28  C   UNL     1      23.199   5.441  48.505  0.00  0.00    +0.000 A 
ATOM     29  C   UNL     1      24.075   4.402  48.830  0.00  0.00    +0.000 A 
ENDBRANCH  23  24
ENDBRANCH  13  23
TORSDOF 3
ENDMDL
MODEL 5
REMARK VINA RESULT:    -8.764      3.894      7.249
REMARK INTER + INTRA:         -10.227
REMARK INTER:                  -9.792
REMARK INTRA:                  -0.435
REMARK UNBOUND:                 0.074
REMARK  Name = 
REMARK  3 active torsions:
REMARK  status: ('A' for Active; 'I' for Inactive)
REMARK    1  A    between atoms: C_2  and  C_5
REMARK    2  A    between atoms: C_17  and  S_18
REMARK    3  A    between atoms: S_18  and  C_19
REMARK                            x       y       z     vdW  Elec       q    Type
REMARK                         _______ _______ _______ _____ _____    ______ ____
ROOT
ATOM      1  C   UNL     1      24.902   5.044  49.151  0.00  0.00    +0.000 A 
ATOM      2  C   UNL     1      26.287   4.879  49.210  0.00  0.00    +0.000 A 
ATOM      3  C   UNL     1      26.843   3.881  50.022  0.00  0.00    +0.000 A 
ATOM      4  C   UNL     1      26.046   3.035  50.792  0.00  0.00    +0.000 A 
ATOM      5  N   UNL     1      26.605   2.087  51.578  0.00  0.00    +0.000 NA
ATOM      6  C   UNL     1      25.793   1.276  52.309  0.00  0.00    +0.000 A 
ATOM      7  N   UNL     1      26.404   0.301  53.085  0.00  0.00    +0.000 N 
ATOM      8  C   UNL     1      27.773   0.514  53.577  0.00  0.00    +0.000 C 
ATOM      9  C   UNL     1      28.758  -0.570  53.082  0.00  0.00    +0.000 C 
ATOM     10  N   UNL     1      28.275  -1.953  53.277  0.00  0.00    +0.000 N 
ATOM     11  C   UNL     1      26.981  -2.082  52.586  0.00  0.00    +0.000 C 
ATOM     12  C   UNL     1      25.914  -1.084  53.081  0.00  0.00    +0.000 C 
ATOM     13  C   UNL     1      24.391   1.490  52.250  0.00  0.00    +0.000 A 
ATOM     14  N   UNL     1      23.827   2.435  51.446  0.00  0.00    +0.000 NA
ATOM     15  C   UNL     1      24.649   3.199  50.725  0.00  0.00    +0.000 A 
ATOM     16  C   UNL     1      24.100   4.184  49.915  0.00  0.00    +0.000 A 
ATOM     17  H   UNL     1      28.157  -2.142  54.274  0.00  0.00    +0.000 HD
ATOM     18  H   UNL     1      28.948  -2.621  52.901  0.00  0.00    +0.000 HD
ENDROOT
BRANCH   1  20
ATOM     19  F   UNL     1      23.378   5.633  47.391  0.00  0.00    +0.000 F 
ATOM     20  C   UNL     1      24.256   6.118  48.310  0.00  0.00    +0.000 C 
ATOM     21  F   UNL     1      25.169   6.842  47.606  0.00  0.00    +0.000 F 
ATOM     22  F   UNL     1      23.560   7.017  49.057  0.00  0.00    +0.000 F 
ENDBRANCH   1  20
BRANCH  13  23
ATOM     23  S   UNL     1      23.177   0.590  53.202  0.00  0.00    +0.000 S 
BRANCH  23  24
ATOM     24  C   UNL     1      21.630   0.927  52.383  0.00  0.00    +0.000 A 
ATOM     25  C   UNL     1      20.697   1.860  52.844  0.00  0.00    +0.000 A 
ATOM     26  C   UNL     1      19.566   2.169  52.082  0.00  0.00    +0.000 A 
ATOM     27  C   UNL     1      19.360   1.551  50.851  0.00  0.00    +0.000 A 
ATOM     28  C   UNL     1      20.272   0.607  50.389  0.00  0.00    +0.000 A 
ATOM     29  C   UNL     1      21.398   0.295  51.153  0.00  0.00    +0.000 A 
ENDBRANCH  23  24
ENDBRANCH  13  23
TORSDOF 3
ENDMDL
MODEL 6
REMARK VINA RESULT:    -8.554      2.487      5.753
REMARK INTER + INTRA:          -9.980
REMARK INTER:                  -9.807
REMARK INTRA:                  -0.173
REMARK UNBOUND:                 0.074
REMARK  Name = 
REMARK  3 active torsions:
REMARK  status: ('A' for Active; 'I' for Inactive)
REMARK    1  A    between atoms: C_2  and  C_5
REMARK    2  A    between atoms: C_17  and  S_18
REMARK    3  A    between atoms: S_18  and  C_19
REMARK                            x       y       z     vdW  Elec       q    Type
REMARK                         _______ _______ _______ _____ _____    ______ ____
ROOT
ATOM      1  C   UNL     1      26.085   0.462  52.586  0.00  0.00    +0.000 A 
ATOM      2  C   UNL     1      26.830   1.214  51.675  0.00  0.00    +0.000 A 
ATOM      3  C   UNL     1      26.240   2.295  51.006  0.00  0.00    +0.000 A 
ATOM      4  C   UNL     1      24.910   2.650  51.219  0.00  0.00    +0.000 A 
ATOM      5  N   UNL     1      24.358   3.690  50.553  0.00  0.00    +0.000 NA
ATOM      6  C   UNL     1      23.057   4.010  50.794  0.00  0.00    +0.000 A 
ATOM      7  N   UNL     1      22.536   5.098  50.108  0.00  0.00    +0.000 N 
ATOM      8  C   UNL     1      23.098   5.475  48.802  0.00  0.00    +0.000 C 
ATOM      9  C   UNL     1      23.667   6.912  48.791  0.00  0.00    +0.000 C 
ATOM     10  N   UNL     1      22.745   7.926  49.344  0.00  0.00    +0.000 N 
ATOM     11  C   UNL     1      22.400   7.522  50.717  0.00  0.00    +0.000 C 
ATOM     12  C   UNL     1      21.750   6.125  50.807  0.00  0.00    +0.000 C 
ATOM     13  C   UNL     1      22.320   3.209  51.703  0.00  0.00    +0.000 A 
ATOM     14  N   UNL     1      22.880   2.170  52.386  0.00  0.00    +0.000 NA
ATOM     15  C   UNL     1      24.162   1.896  52.144  0.00  0.00    +0.000 A 
ATOM     16  C   UNL     1      24.750   0.829  52.810  0.00  0.00    +0.000 A 
ATOM     17  H   UNL     1      21.899   7.974  48.774  0.00  0.00    +0.000 HD
ATOM     18  H   UNL     1      23.186   8.845  49.344  0.00  0.00    +0.000 HD
ENDROOT
BRANCH   1  20
ATOM     19  F   UNL     1      27.906  -0.493  53.826  0.00  0.00    +0.000 F 
ATOM     20  C   UNL     1      26.667  -0.725  53.314  0.00  0.00    +0.000 C 
ATOM     21  F   UNL     1      26.794  -1.814  52.507  0.00  0.00    +0.000 F 
ATOM     22  F   UNL     1      25.896  -1.123  54.362  0.00  0.00    +0.000 F 
ENDBRANCH   1  20
BRANCH  13  23
ATOM     23  S   UNL     1      20.586   3.417  52.078  0.00  0.00    +0.000 S 
BRANCH  23  24
ATOM     24  C   UNL     1      19.968   1.756  52.264  0.00  0.00    +0.000 A 
ATOM     25  C   UNL     1      20.331   0.908  53.316  0.00  0.00    +0.000 A 
ATOM     26  C   UNL     1      19.707  -0.334  53.474  0.00  0.00    +0.000 A 
ATOM     27  C   UNL     1      18.713  -0.737  52.585  0.00  0.00    +0.000 A 
ATOM     28  C   UNL     1      18.356   0.089  51.524  0.00  0.00    +0.000 A 
ATOM     29  C   UNL     1      18.983   1.327  51.364  0.00  0.00    +0.000 A 
ENDBRANCH  23  24
ENDBRANCH  13  23
TORSDOF 3
ENDMDL
MODEL 7
REMARK VINA RESULT:    -8.364      3.775      6.446
REMARK INTER + INTRA:          -9.756
REMARK INTER:                  -9.326
REMARK INTRA:                  -0.430
REMARK UNBOUND:                 0.074
REMARK  Name = 
REMARK  3 active torsions:
REMARK  status: ('A' for Active; 'I' for Inactive)
REMARK    1  A    between atoms: C_2  and  C_5
REMARK    2  A    between atoms: C_17  and  S_18
REMARK    3  A    between atoms: S_18  and  C_19
REMARK                            x       y       z     vdW  Elec       q    Type
REMARK                         _______ _______ _______ _____ _____    ______ ____
ROOT
ATOM      1  C   UNL     1      29.168   5.969  48.061  0.00  0.00    +0.000 A 
ATOM      2  C   UNL     1      28.629   7.207  47.706  0.00  0.00    +0.000 A 
ATOM      3  C   UNL     1      27.257   7.448  47.862  0.00  0.00    +0.000 A 
ATOM      4  C   UNL     1      26.395   6.475  48.364  0.00  0.00    +0.000 A 
ATOM      5  N   UNL     1      25.073   6.725  48.494  0.00  0.00    +0.000 NA
ATOM      6  C   UNL     1      24.265   5.751  48.996  0.00  0.00    +0.000 A 
ATOM      7  N   UNL     1      22.918   6.056  49.136  0.00  0.00    +0.000 N 
ATOM      8  C   UNL     1      22.304   7.064  48.259  0.00  0.00    +0.000 C 
ATOM      9  C   UNL     1      21.708   8.253  49.045  0.00  0.00    +0.000 C 
ATOM     10  N   UNL     1      20.840   7.853  50.173  0.00  0.00    +0.000 N 
ATOM     11  C   UNL     1      21.630   6.990  51.067  0.00  0.00    +0.000 C 
ATOM     12  C   UNL     1      22.196   5.733  50.374  0.00  0.00    +0.000 C 
ATOM     13  C   UNL     1      24.839   4.495  49.320  0.00  0.00    +0.000 A 
ATOM     14  N   UNL     1      26.175   4.247  49.203  0.00  0.00    +0.000 NA
ATOM     15  C   UNL     1      26.942   5.230  48.729  0.00  0.00    +0.000 A 
ATOM     16  C   UNL     1      28.303   4.995  48.580  0.00  0.00    +0.000 A 
ATOM     17  H   UNL     1      20.031   7.339  49.821  0.00  0.00    +0.000 HD
ATOM     18  H   UNL     1      20.506   8.675  50.674  0.00  0.00    +0.000 HD
ENDROOT
BRANCH   1  20
ATOM     19  F   UNL     1      30.866   4.420  47.363  0.00  0.00    +0.000 F 
ATOM     20  C   UNL     1      30.634   5.653  47.891  0.00  0.00    +0.000 C 
ATOM     21  F   UNL     1      31.311   5.686  49.071  0.00  0.00    +0.000 F 
ATOM     22  F   UNL     1      31.267   6.536  47.072  0.00  0.00    +0.000 F 
ENDBRANCH   1  20
BRANCH  13  23
ATOM     23  S   UNL     1      23.930   3.073  49.902  0.00  0.00    +0.000 S 
BRANCH  23  24
ATOM     24  C   UNL     1      24.824   2.533  51.346  0.00  0.00    +0.000 A 
ATOM     25  C   UNL     1      26.001   1.780  51.291  0.00  0.00    +0.000 A 
ATOM     26  C   UNL     1      26.722   1.504  52.458  0.00  0.00    +0.000 A 
ATOM     27  C   UNL     1      26.274   1.980  53.688  0.00  0.00    +0.000 A 
ATOM     28  C   UNL     1      25.094   2.714  53.759  0.00  0.00    +0.000 A 
ATOM     29  C   UNL     1      24.372   2.985  52.593  0.00  0.00    +0.000 A 
ENDBRANCH  23  24
ENDBRANCH  13  23
TORSDOF 3
ENDMDL
MODEL 8
REMARK VINA RESULT:    -8.129      3.249      6.324
REMARK INTER + INTRA:          -9.481
REMARK INTER:                  -8.953
REMARK INTRA:                  -0.527
REMARK UNBOUND:                 0.074
REMARK  Name = 
REMARK  3 active torsions:
REMARK  status: ('A' for Active; 'I' for Inactive)
REMARK    1  A    between atoms: C_2  and  C_5
REMARK    2  A    between atoms: C_17  and  S_18
REMARK    3  A    between atoms: S_18  and  C_19
REMARK                            x       y       z     vdW  Elec       q    Type
REMARK                         _______ _______ _______ _____ _____    ______ ____
ROOT
ATOM      1  C   UNL     1      22.894  -0.240  53.844  0.00  0.00    +0.000 A 
ATOM      2  C   UNL     1      24.252  -0.269  53.521  0.00  0.00    +0.000 A 
ATOM      3  C   UNL     1      24.789   0.689  52.650  0.00  0.00    +0.000 A 
ATOM      4  C   UNL     1      23.999   1.684  52.079  0.00  0.00    +0.000 A 
ATOM      5  N   UNL     1      24.536   2.591  51.231  0.00  0.00    +0.000 NA
ATOM      6  C   UNL     1      23.733   3.552  50.700  0.00  0.00    +0.000 A 
ATOM      7  N   UNL     1      24.326   4.477  49.853  0.00  0.00    +0.000 N 
ATOM      8  C   UNL     1      25.531   4.104  49.097  0.00  0.00    +0.000 C 
ATOM      9  C   UNL     1      26.743   5.005  49.426  0.00  0.00    +0.000 C 
ATOM     10  N   UNL     1      26.446   6.452  49.375  0.00  0.00    +0.000 N 
ATOM     11  C   UNL     1      25.340   6.719  50.309  0.00  0.00    +0.000 C 
ATOM     12  C   UNL     1      24.060   5.915  49.999  0.00  0.00    +0.000 C 
ATOM     13  C   UNL     1      22.352   3.536  51.025  0.00  0.00    +0.000 A 
ATOM     14  N   UNL     1      21.812   2.632  51.891  0.00  0.00    +0.000 NA
ATOM     15  C   UNL     1      22.631   1.716  52.412  0.00  0.00    +0.000 A 
ATOM     16  C   UNL     1      22.102   0.770  53.280  0.00  0.00    +0.000 A 
ATOM     17  H   UNL     1      26.172   6.717  48.428  0.00  0.00    +0.000 HD
ATOM     18  H   UNL     1      27.271   6.994  49.635  0.00  0.00    +0.000 HD
ENDROOT
BRANCH   1  20
ATOM     19  F   UNL     1      21.694  -2.305  54.096  0.00  0.00    +0.000 F 
ATOM     20  C   UNL     1      22.264  -1.262  54.758  0.00  0.00    +0.000 C 
ATOM     21  F   UNL     1      21.279  -0.727  55.530  0.00  0.00    +0.000 F 
ATOM     22  F   UNL     1      23.160  -1.812  55.622  0.00  0.00    +0.000 F 
ENDBRANCH   1  20
BRANCH  13  23
ATOM     23  S   UNL     1      21.130   4.655  50.359  0.00  0.00    +0.000 S 
BRANCH  23  24
ATOM     24  C   UNL     1      19.606   3.732  50.408  0.00  0.00    +0.000 A 
ATOM     25  C   UNL     1      18.668   3.841  51.440  0.00  0.00    +0.000 A 
ATOM     26  C   UNL     1      17.434   3.188  51.349  0.00  0.00    +0.000 A 
ATOM     27  C   UNL     1      17.126   2.425  50.225  0.00  0.00    +0.000 A 
ATOM     28  C   UNL     1      18.058   2.293  49.200  0.00  0.00    +0.000 A 
ATOM     29  C   UNL     1      19.292   2.942  49.294  0.00  0.00    +0.000 A 
ENDBRANCH  23  24
ENDBRANCH  13  23
TORSDOF 3
ENDMDL
MODEL 9
REMARK VINA RESULT:    -7.977      3.885      6.501
REMARK INTER + INTRA:          -9.302
REMARK INTER:                  -8.703
REMARK INTRA:                  -0.599
REMARK UNBOUND:                 0.074
REMARK  Name = 
REMARK  3 active torsions:
REMARK  status: ('A' for Active; 'I' for Inactive)
REMARK    1  A    between atoms: C_2  and  C_5
REMARK    2  A    between atoms: C_17  and  S_18
REMARK    3  A    between atoms: S_18  and  C_19
REMARK                            x       y       z     vdW  Elec       q    Type
REMARK                         _______ _______ _______ _____ _____    ______ ____
ROOT
ATOM      1  C   UNL     1      26.052   8.164  49.218  0.00  0.00    +0.000 A 
ATOM      2  C   UNL     1      25.509   7.887  47.963  0.00  0.00    +0.000 A 
ATOM      3  C   UNL     1      24.634   6.803  47.799  0.00  0.00    +0.000 A 
ATOM      4  C   UNL     1      24.286   5.975  48.864  0.00  0.00    +0.000 A 
ATOM      5  N   UNL     1      23.450   4.928  48.680  0.00  0.00    +0.000 NA
ATOM      6  C   UNL     1      23.129   4.147  49.746  0.00  0.00    +0.000 A 
ATOM      7  N   UNL     1      22.250   3.096  49.521  0.00  0.00    +0.000 N 
ATOM      8  C   UNL     1      22.170   2.488  48.184  0.00  0.00    +0.000 C 
ATOM      9  C   UNL     1      20.756   2.591  47.568  0.00  0.00    +0.000 C 
ATOM     10  N   UNL     1      19.673   2.154  48.475  0.00  0.00    +0.000 N 
ATOM     11  C   UNL     1      19.758   2.963  49.702  0.00  0.00    +0.000 C 
ATOM     12  C   UNL     1      21.117   2.853  50.424  0.00  0.00    +0.000 C 
ATOM     13  C   UNL     1      23.721   4.438  51.002  0.00  0.00    +0.000 A 
ATOM     14  N   UNL     1      24.552   5.503  51.192  0.00  0.00    +0.000 NA
ATOM     15  C   UNL     1      24.830   6.261  50.131  0.00  0.00    +0.000 A 
ATOM     16  C   UNL     1      25.691   7.339  50.293  0.00  0.00    +0.000 A 
ATOM     17  H   UNL     1      19.790   1.165  48.702  0.00  0.00    +0.000 HD
ATOM     18  H   UNL     1      18.764   2.277  48.029  0.00  0.00    +0.000 HD
ENDROOT
BRANCH   1  20
ATOM     19  F   UNL     1      27.490   9.372  50.716  0.00  0.00    +0.000 F 
ATOM     20  C   UNL     1      27.016   9.304  49.442  0.00  0.00    +0.000 C 
ATOM     21  F   UNL     1      26.450  10.516  49.190  0.00  0.00    +0.000 F 
ATOM     22  F   UNL     1      28.111   9.227  48.638  0.00  0.00    +0.000 F 
ENDBRANCH   1  20
BRANCH  13  23
ATOM     23  S   UNL     1      23.493   3.477  52.490  0.00  0.00    +0.000 S 
BRANCH  23  24
ATOM     24  C   UNL     1      24.629   2.115  52.320  0.00  0.00    +0.000 A 
ATOM     25  C   UNL     1      25.896   2.231  51.738  0.00  0.00    +0.000 A 
ATOM     26  C   UNL     1      26.787   1.152  51.758  0.00  0.00    +0.000 A 
ATOM     27  C   UNL     1      26.421  -0.048  52.361  0.00  0.00    +0.000 A 
ATOM     28  C   UNL     1      25.157  -0.183  52.927  0.00  0.00    +0.000 A 
ATOM     29  C   UNL     1      24.266   0.893  52.903  0.00  0.00    +0.000 A 
ENDBRANCH  23  24
ENDBRANCH  13  23
TORSDOF 3
ENDMDL
