MODEL 1
REMARK VINA RESULT:    -8.766      0.000      0.000
REMARK INTER + INTRA:          -9.707
REMARK INTER:                  -9.791
REMARK INTRA:                   0.085
REMARK UNBOUND:                 0.085
REMARK  Name = 
REMARK  5 active torsions:
REMARK  status: ('A' for Active; 'I' for Inactive)
REMARK    1  A    between atoms: C_1  and  C_2
REMARK    2  A    between atoms: C_2  and  C_3
REMARK    3  A    between atoms: C_2  and  C_4
REMARK    4  A    between atoms: C_2  and  N_5
REMARK    5  A    between atoms: C_17  and  C_18
REMARK                            x       y       z     vdW  Elec       q    Type
REMARK                         _______ _______ _______ _____ _____    ______ ____
ROOT
ATOM      1  N   UNL     1      27.641   1.137  53.120  0.00  0.00    +0.000 N 
ATOM      2  C   UNL     1      26.305   1.201  52.773  0.00  0.00    +0.000 A 
ATOM      3  N   UNL     1      25.390   0.412  53.270  0.00  0.00    +0.000 NA
ATOM      4  C   UNL     1      24.062   0.466  52.786  0.00  0.00    +0.000 A 
ATOM      5  C   UNL     1      23.151  -0.477  53.261  0.00  0.00    +0.000 A 
ATOM      6  C   UNL     1      21.851  -0.515  52.755  0.00  0.00    +0.000 A 
ATOM      7  C   UNL     1      21.460   0.398  51.774  0.00  0.00    +0.000 A 
ATOM      8 CL   UNL     1      19.864   0.317  51.135  0.00  0.00    +0.000 Cl
ATOM      9  C   UNL     1      22.350   1.359  51.295  0.00  0.00    +0.000 A 
ATOM     10  C   UNL     1      23.650   1.392  51.801  0.00  0.00    +0.000 A 
ATOM     11  C   UNL     1      24.664   2.307  51.326  0.00  0.00    +0.000 A 
ATOM     12  N   UNL     1      24.641   3.287  50.448  0.00  0.00    +0.000 NA
ATOM     13  C   UNL     1      25.965   3.689  50.397  0.00  0.00    +0.000 A 
ATOM     14  N   UNL     1      26.795   3.011  51.210  0.00  0.00    +0.000 NA
ATOM     15  N   UNL     1      25.931   2.164  51.809  0.00  0.00    +0.000 N 
ATOM     16  H   UNL     1      28.181   1.948  52.984  0.00  0.00    +0.000 HD
ENDROOT
BRANCH  13  17
ATOM     17  C   UNL     1      26.437   4.778  49.487  0.00  0.00    +0.000 A 
ATOM     18  C   UNL     1      27.650   4.810  48.824  0.00  0.00    +0.000 A 
ATOM     19  C   UNL     1      27.685   6.018  48.084  0.00  0.00    +0.000 A 
ATOM     20  C   UNL     1      26.497   6.658  48.348  0.00  0.00    +0.000 A 
ATOM     21  O   UNL     1      25.731   5.912  49.183  0.00  0.00    +0.000 OA
ENDBRANCH  13  17
BRANCH   1  23
ATOM     22  C   UNL     1      27.841  -1.344  53.015  0.00  0.00    +0.000 C 
ATOM     23  C   UNL     1      28.319  -0.037  53.671  0.00  0.00    +0.000 C 
ATOM     24  C   UNL     1      28.100  -0.091  55.187  0.00  0.00    +0.000 C 
ATOM     25  C   UNL     1      29.823   0.115  53.380  0.00  0.00    +0.000 C 
ENDBRANCH   1  23
TORSDOF 2
ENDMDL
MODEL 2
REMARK VINA RESULT:    -8.514      2.686      5.849
REMARK INTER + INTRA:          -9.425
REMARK INTER:                  -9.612
REMARK INTRA:                   0.187
REMARK UNBOUND:                 0.085
REMARK  Name = 
REMARK  5 active torsions:
REMARK  status: ('A' for Active; 'I' for Inactive)
REMARK    1  A    between atoms: C_1  and  C_2
REMARK    2  A    between atoms: C_2  and  C_3
REMARK    3  A    between atoms: C_2  and  C_4
REMARK    4  A    between atoms: C_2  and  N_5
REMARK    5  A    between atoms: C_17  and  C_18
REMARK                            x       y       z     vdW  Elec       q    Type
REMARK                         _______ _______ _______ _____ _____    ______ ____
ROOT
ATOM      1  N   UNL     1      27.086   0.480  53.121  0.00  0.00    +0.000 N 
ATOM      2  C   UNL     1      26.399   1.268  52.217  0.00  0.00    +0.000 A 
ATOM      3  N   UNL     1      26.975   2.139  51.431  0.00  0.00    +0.000 NA
ATOM      4  C   UNL     1      26.194   2.984  50.611  0.00  0.00    +0.000 A 
ATOM      5  C   UNL     1      26.846   3.978  49.882  0.00  0.00    +0.000 A 
ATOM      6  C   UNL     1      26.112   4.887  49.120  0.00  0.00    +0.000 A 
ATOM      7  C   UNL     1      24.719   4.798  49.082  0.00  0.00    +0.000 A 
ATOM      8 CL   UNL     1      23.825   5.947  48.164  0.00  0.00    +0.000 Cl
ATOM      9  C   UNL     1      24.046   3.804  49.791  0.00  0.00    +0.000 A 
ATOM     10  C   UNL     1      24.784   2.898  50.555  0.00  0.00    +0.000 A 
ATOM     11  C   UNL     1      24.177   1.871  51.373  0.00  0.00    +0.000 A 
ATOM     12  N   UNL     1      22.929   1.499  51.558  0.00  0.00    +0.000 NA
ATOM     13  C   UNL     1      23.037   0.526  52.539  0.00  0.00    +0.000 A 
ATOM     14  N   UNL     1      24.292   0.278  52.954  0.00  0.00    +0.000 NA
ATOM     15  N   UNL     1      24.994   1.125  52.171  0.00  0.00    +0.000 N 
ATOM     16  H   UNL     1      26.656  -0.357  53.408  0.00  0.00    +0.000 HD
ENDROOT
BRANCH  13  17
ATOM     17  C   UNL     1      21.845  -0.174  53.107  0.00  0.00    +0.000 A 
ATOM     18  C   UNL     1      21.875  -1.216  54.016  0.00  0.00    +0.000 A 
ATOM     19  C   UNL     1      20.529  -1.578  54.274  0.00  0.00    +0.000 A 
ATOM     20  C   UNL     1      19.757  -0.745  53.500  0.00  0.00    +0.000 A 
ATOM     21  O   UNL     1      20.541   0.116  52.801  0.00  0.00    +0.000 OA
ENDBRANCH  13  17
BRANCH   1  23
ATOM     22  C   UNL     1      28.692   2.300  53.684  0.00  0.00    +0.000 C 
ATOM     23  C   UNL     1      28.400   0.790  53.689  0.00  0.00    +0.000 C 
ATOM     24  C   UNL     1      29.485   0.035  52.912  0.00  0.00    +0.000 C 
ATOM     25  C   UNL     1      28.398   0.313  55.152  0.00  0.00    +0.000 C 
ENDBRANCH   1  23
TORSDOF 2
ENDMDL
MODEL 3
REMARK VINA RESULT:    -8.477      2.978      6.116
REMARK INTER + INTRA:          -9.384
REMARK INTER:                  -9.470
REMARK INTRA:                   0.086
REMARK UNBOUND:                 0.085
REMARK  Name = 
REMARK  5 active torsions:
REMARK  status: ('A' for Active; 'I' for Inactive)
REMARK    1  A    between atoms: C_1  and  C_2
REMARK    2  A    between atoms: C_2  and  C_3
REMARK    3  A    between atoms: C_2  and  C_4
REMARK    4  A    between atoms: C_2  and  N_5
REMARK    5  A    between atoms: C_17  and  C_18
REMARK                            x       y       z     vdW  Elec       q    Type
REMARK                         _______ _______ _______ _____ _____    ______ ____
ROOT
ATOM      1  N   UNL     1      22.878   0.172  53.644  0.00  0.00    +0.000 N 
ATOM      2  C   UNL     1      23.523   1.155  52.918  0.00  0.00    +0.000 A 
ATOM      3  N   UNL     1      22.907   2.161  52.357  0.00  0.00    +0.000 NA
ATOM      4  C   UNL     1      23.620   3.067  51.538  0.00  0.00    +0.000 A 
ATOM      5  C   UNL     1      22.899   4.053  50.865  0.00  0.00    +0.000 A 
ATOM      6  C   UNL     1      23.547   4.919  49.984  0.00  0.00    +0.000 A 
ATOM      7  C   UNL     1      24.923   4.804  49.782  0.00  0.00    +0.000 A 
ATOM      8 CL   UNL     1      25.703   5.859  48.667  0.00  0.00    +0.000 Cl
ATOM      9  C   UNL     1      25.667   3.835  50.455  0.00  0.00    +0.000 A 
ATOM     10  C   UNL     1      25.015   2.968  51.332  0.00  0.00    +0.000 A 
ATOM     11  C   UNL     1      25.686   1.893  52.030  0.00  0.00    +0.000 A 
ATOM     12  N   UNL     1      26.944   1.514  52.086  0.00  0.00    +0.000 NA
ATOM     13  C   UNL     1      26.887   0.361  52.853  0.00  0.00    +0.000 A 
ATOM     14  N   UNL     1      25.656   0.024  53.278  0.00  0.00    +0.000 NA
ATOM     15  N   UNL     1      24.922   1.035  52.765  0.00  0.00    +0.000 N 
ATOM     16  H   UNL     1      23.414  -0.329  54.301  0.00  0.00    +0.000 HD
ENDROOT
BRANCH  13  17
ATOM     17  C   UNL     1      28.101  -0.456  53.161  0.00  0.00    +0.000 A 
ATOM     18  C   UNL     1      29.289   0.023  53.682  0.00  0.00    +0.000 A 
ATOM     19  C   UNL     1      30.163  -1.085  53.808  0.00  0.00    +0.000 A 
ATOM     20  C   UNL     1      29.462  -2.174  53.346  0.00  0.00    +0.000 A 
ATOM     21  O   UNL     1      28.211  -1.808  52.965  0.00  0.00    +0.000 OA
ENDBRANCH  13  17
BRANCH   1  23
ATOM     22  C   UNL     1      20.985  -0.145  52.057  0.00  0.00    +0.000 C 
ATOM     23  C   UNL     1      21.465  -0.187  53.518  0.00  0.00    +0.000 C 
ATOM     24  C   UNL     1      20.618   0.752  54.384  0.00  0.00    +0.000 C 
ATOM     25  C   UNL     1      21.304  -1.631  54.026  0.00  0.00    +0.000 C 
ENDBRANCH   1  23
TORSDOF 2
ENDMDL
MODEL 4
REMARK VINA RESULT:    -8.371      2.156      5.464
REMARK INTER + INTRA:          -9.265
REMARK INTER:                  -9.326
REMARK INTRA:                   0.061
REMARK UNBOUND:                 0.085
REMARK  Name = 
REMARK  5 active torsions:
REMARK  status: ('A' for Active; 'I' for Inactive)
REMARK    1  A    between atoms: C_1  and  C_2
REMARK    2  A    between atoms: C_2  and  C_3
REMARK    3  A    between atoms: C_2  and  C_4
REMARK    4  A    between atoms: C_2  and  N_5
REMARK    5  A    between atoms: C_17  and  C_18
REMARK                            x       y       z     vdW  Elec       q    Type
REMARK                         _______ _______ _______ _____ _____    ______ ____
ROOT
ATOM      1  N   UNL     1      24.947   3.516  50.551  0.00  0.00    +0.000 N 
ATOM      2  C   UNL     1      24.267   2.460  51.129  0.00  0.00    +0.000 A 
ATOM      3  N   UNL     1      22.967   2.334  51.098  0.00  0.00    +0.000 NA
ATOM      4  C   UNL     1      22.337   1.285  51.806  0.00  0.00    +0.000 A 
ATOM      5  C   UNL     1      20.943   1.262  51.843  0.00  0.00    +0.000 A 
ATOM      6  C   UNL     1      20.276   0.293  52.593  0.00  0.00    +0.000 A 
ATOM      7  C   UNL     1      21.006  -0.661  53.304  0.00  0.00    +0.000 A 
ATOM      8 CL   UNL     1      20.169  -1.829  54.252  0.00  0.00    +0.000 Cl
ATOM      9  C   UNL     1      22.400  -0.666  53.270  0.00  0.00    +0.000 A 
ATOM     10  C   UNL     1      23.064   0.307  52.522  0.00  0.00    +0.000 A 
ATOM     11  C   UNL     1      24.505   0.423  52.472  0.00  0.00    +0.000 A 
ATOM     12  N   UNL     1      25.477  -0.295  52.992  0.00  0.00    +0.000 NA
ATOM     13  C   UNL     1      26.611   0.418  52.642  0.00  0.00    +0.000 A 
ATOM     14  N   UNL     1      26.381   1.532  51.923  0.00  0.00    +0.000 NA
ATOM     15  N   UNL     1      25.036   1.488  51.806  0.00  0.00    +0.000 N 
ATOM     16  H   UNL     1      25.892   3.369  50.316  0.00  0.00    +0.000 HD
ENDROOT
BRANCH  13  17
ATOM     17  C   UNL     1      27.984  -0.007  53.054  0.00  0.00    +0.000 A 
ATOM     18  C   UNL     1      28.426  -1.313  53.169  0.00  0.00    +0.000 A 
ATOM     19  C   UNL     1      29.778  -1.256  53.590  0.00  0.00    +0.000 A 
ATOM     20  C   UNL     1      30.079   0.080  53.719  0.00  0.00    +0.000 A 
ATOM     21  O   UNL     1      29.007   0.842  53.385  0.00  0.00    +0.000 OA
ENDBRANCH  13  17
BRANCH   1  23
ATOM     22  C   UNL     1      23.629   5.420  51.467  0.00  0.00    +0.000 C 
ATOM     23  C   UNL     1      24.379   4.833  50.260  0.00  0.00    +0.000 C 
ATOM     24  C   UNL     1      23.444   4.732  49.049  0.00  0.00    +0.000 C 
ATOM     25  C   UNL     1      25.546   5.779  49.923  0.00  0.00    +0.000 C 
ENDBRANCH   1  23
TORSDOF 2
ENDMDL
MODEL 5
REMARK VINA RESULT:    -8.140      2.522      4.961
REMARK INTER + INTRA:          -9.008
REMARK INTER:                  -9.068
REMARK INTRA:                   0.060
REMARK UNBOUND:                 0.085
REMARK  Name = 
REMARK  5 active torsions:
REMARK  status: ('A' for Active; 'I' for Inactive)
REMARK    1  A    between atoms: C_1  and  C_2
REMARK    2  A    between atoms: C_2  and  C_3
REMARK    3  A    between atoms: C_2  and  C_4
REMARK    4  A    between atoms: C_2  and  N_5
REMARK    5  A    between atoms: C_17  and  C_18
REMARK                            x       y       z     vdW  Elec       q    Type
REMARK                         _______ _______ _______ _____ _____    ______ ____
ROOT
ATOM      1  N   UNL     1      22.356   2.707  50.084  0.00  0.00    +0.000 N 
ATOM      2  C   UNL     1      23.491   2.260  50.735  0.00  0.00    +0.000 A 
ATOM      3  N   UNL     1      23.491   1.283  51.603  0.00  0.00    +0.000 NA
ATOM      4  C   UNL     1      24.671   0.956  52.308  0.00  0.00    +0.000 A 
ATOM      5  C   UNL     1      24.592  -0.012  53.309  0.00  0.00    +0.000 A 
ATOM      6  C   UNL     1      25.712  -0.312  54.086  0.00  0.00    +0.000 A 
ATOM      7  C   UNL     1      26.917   0.353  53.856  0.00  0.00    +0.000 A 
ATOM      8 CL   UNL     1      28.280  -0.005  54.844  0.00  0.00    +0.000 Cl
ATOM      9  C   UNL     1      27.023   1.314  52.851  0.00  0.00    +0.000 A 
ATOM     10  C   UNL     1      25.901   1.615  52.078  0.00  0.00    +0.000 A 
ATOM     11  C   UNL     1      25.892   2.637  51.055  0.00  0.00    +0.000 A 
ATOM     12  N   UNL     1      26.829   3.426  50.574  0.00  0.00    +0.000 NA
ATOM     13  C   UNL     1      26.132   4.230  49.687  0.00  0.00    +0.000 A 
ATOM     14  N   UNL     1      24.817   3.963  49.593  0.00  0.00    +0.000 NA
ATOM     15  N   UNL     1      24.704   2.925  50.451  0.00  0.00    +0.000 N 
ATOM     16  H   UNL     1      22.482   3.178  49.230  0.00  0.00    +0.000 HD
ENDROOT
BRANCH  13  17
ATOM     17  C   UNL     1      26.791   5.326  48.912  0.00  0.00    +0.000 A 
ATOM     18  C   UNL     1      28.107   5.339  48.489  0.00  0.00    +0.000 A 
ATOM     19  C   UNL     1      28.308   6.563  47.802  0.00  0.00    +0.000 A 
ATOM     20  C   UNL     1      27.107   7.229  47.856  0.00  0.00    +0.000 A 
ATOM     21  O   UNL     1      26.180   6.486  48.512  0.00  0.00    +0.000 OA
ENDBRANCH  13  17
BRANCH   1  23
ATOM     22  C   UNL     1      20.824   2.959  52.032  0.00  0.00    +0.000 C 
ATOM     23  C   UNL     1      20.983   2.537  50.561  0.00  0.00    +0.000 C 
ATOM     24  C   UNL     1      20.553   1.077  50.377  0.00  0.00    +0.000 C 
ATOM     25  C   UNL     1      20.079   3.445  49.709  0.00  0.00    +0.000 C 
ENDBRANCH   1  23
TORSDOF 2
ENDMDL
MODEL 6
REMARK VINA RESULT:    -8.120      3.009      6.494
REMARK INTER + INTRA:          -8.985
REMARK INTER:                  -9.053
REMARK INTRA:                   0.068
REMARK UNBOUND:                 0.085
REMARK  Name = 
REMARK  5 active torsions:
REMARK  status: ('A' for Active; 'I' for Inactive)
REMARK    1  A    between atoms: C_1  and  C_2
REMARK    2  A    between atoms: C_2  and  C_3
REMARK    3  A    between atoms: C_2  and  C_4
REMARK    4  A    between atoms: C_2  and  N_5
REMARK    5  A    between atoms: C_17  and  C_18
REMARK                            x       y       z     vdW  Elec       q    Type
REMARK                         _______ _______ _______ _____ _____    ______ ____
ROOT
ATOM      1  N   UNL     1      22.617   1.300  52.126  0.00  0.00    +0.000 N 
ATOM      2  C   UNL     1      23.507   2.203  51.573  0.00  0.00    +0.000 A 
ATOM      3  N   UNL     1      23.140   3.258  50.897  0.00  0.00    +0.000 NA
ATOM      4  C   UNL     1      24.108   4.075  50.270  0.00  0.00    +0.000 A 
ATOM      5  C   UNL     1      23.663   5.120  49.460  0.00  0.00    +0.000 A 
ATOM      6  C   UNL     1      24.579   5.904  48.757  0.00  0.00    +0.000 A 
ATOM      7  C   UNL     1      25.946   5.645  48.870  0.00  0.00    +0.000 A 
ATOM      8 CL   UNL     1      27.061   6.600  47.971  0.00  0.00    +0.000 Cl
ATOM      9  C   UNL     1      26.415   4.616  49.685  0.00  0.00    +0.000 A 
ATOM     10  C   UNL     1      25.496   3.831  50.384  0.00  0.00    +0.000 A 
ATOM     11  C   UNL     1      25.878   2.704  51.204  0.00  0.00    +0.000 A 
ATOM     12  N   UNL     1      27.046   2.199  51.540  0.00  0.00    +0.000 NA
ATOM     13  C   UNL     1      26.699   1.069  52.262  0.00  0.00    +0.000 A 
ATOM     14  N   UNL     1      25.376   0.864  52.395  0.00  0.00    +0.000 NA
ATOM     15  N   UNL     1      24.884   1.938  51.739  0.00  0.00    +0.000 N 
ATOM     16  H   UNL     1      22.937   0.757  52.881  0.00  0.00    +0.000 HD
ENDROOT
BRANCH  13  17
ATOM     17  C   UNL     1      27.721   0.136  52.830  0.00  0.00    +0.000 A 
ATOM     18  C   UNL     1      28.833   0.504  53.565  0.00  0.00    +0.000 A 
ATOM     19  C   UNL     1      29.526  -0.688  53.892  0.00  0.00    +0.000 A 
ATOM     20  C   UNL     1      28.802  -1.713  53.329  0.00  0.00    +0.000 A 
ATOM     21  O   UNL     1      27.704  -1.228  52.696  0.00  0.00    +0.000 OA
ENDBRANCH  13  17
BRANCH   1  23
ATOM     22  C   UNL     1      21.155   0.830  50.165  0.00  0.00    +0.000 C 
ATOM     23  C   UNL     1      21.240   1.085  51.679  0.00  0.00    +0.000 C 
ATOM     24  C   UNL     1      20.381   2.296  52.064  0.00  0.00    +0.000 C 
ATOM     25  C   UNL     1      20.707  -0.165  52.400  0.00  0.00    +0.000 C 
ENDBRANCH   1  23
TORSDOF 2
ENDMDL
MODEL 7
REMARK VINA RESULT:    -8.039      3.037      5.170
REMARK INTER + INTRA:          -8.894
REMARK INTER:                  -9.065
REMARK INTRA:                   0.171
REMARK UNBOUND:                 0.085
REMARK  Name = 
REMARK  5 active torsions:
REMARK  status: ('A' for Active; 'I' for Inactive)
REMARK    1  A    between atoms: C_1  and  C_2
REMARK    2  A    between atoms: C_2  and  C_3
REMARK    3  A    between atoms: C_2  and  C_4
REMARK    4  A    between atoms: C_2  and  N_5
REMARK    5  A    between atoms: C_17  and  C_18
REMARK                            x       y       z     vdW  Elec       q    Type
REMARK                         _______ _______ _______ _____ _____    ______ ____
ROOT
ATOM      1  N   UNL     1      21.698   0.118  52.532  0.00  0.00    +0.000 N 
ATOM      2  C   UNL     1      23.045   0.407  52.647  0.00  0.00    +0.000 A 
ATOM      3  N   UNL     1      23.843  -0.189  53.493  0.00  0.00    +0.000 NA
ATOM      4  C   UNL     1      25.185   0.237  53.628  0.00  0.00    +0.000 A 
ATOM      5  C   UNL     1      25.962  -0.348  54.627  0.00  0.00    +0.000 A 
ATOM      6  C   UNL     1      27.266   0.094  54.852  0.00  0.00    +0.000 A 
ATOM      7  C   UNL     1      27.796   1.122  54.070  0.00  0.00    +0.000 A 
ATOM      8 CL   UNL     1      29.395   1.680  54.381  0.00  0.00    +0.000 Cl
ATOM      9  C   UNL     1      27.042   1.712  53.056  0.00  0.00    +0.000 A 
ATOM     10  C   UNL     1      25.737   1.270  52.836  0.00  0.00    +0.000 A 
ATOM     11  C   UNL     1      24.855   1.857  51.853  0.00  0.00    +0.000 A 
ATOM     12  N   UNL     1      25.024   2.805  50.956  0.00  0.00    +0.000 NA
ATOM     13  C   UNL     1      23.757   2.946  50.412  0.00  0.00    +0.000 A 
ATOM     14  N   UNL     1      22.825   2.123  50.924  0.00  0.00    +0.000 NA
ATOM     15  N   UNL     1      23.563   1.423  51.814  0.00  0.00    +0.000 N 
ATOM     16  H   UNL     1      21.261   0.339  51.679  0.00  0.00    +0.000 HD
ENDROOT
BRANCH  13  17
ATOM     17  C   UNL     1      23.449   3.955  49.352  0.00  0.00    +0.000 A 
ATOM     18  C   UNL     1      24.142   5.130  49.127  0.00  0.00    +0.000 A 
ATOM     19  C   UNL     1      23.510   5.782  48.039  0.00  0.00    +0.000 A 
ATOM     20  C   UNL     1      22.461   4.973  47.671  0.00  0.00    +0.000 A 
ATOM     21  O   UNL     1      22.423   3.861  48.449  0.00  0.00    +0.000 OA
ENDBRANCH  13  17
BRANCH   1  23
ATOM     22  C   UNL     1      21.446  -1.826  54.070  0.00  0.00    +0.000 C 
ATOM     23  C   UNL     1      20.869  -0.489  53.575  0.00  0.00    +0.000 C 
ATOM     24  C   UNL     1      19.444  -0.687  53.045  0.00  0.00    +0.000 C 
ATOM     25  C   UNL     1      20.837   0.483  54.768  0.00  0.00    +0.000 C 
ENDBRANCH   1  23
TORSDOF 2
ENDMDL
MODEL 8
REMARK VINA RESULT:    -7.823      3.873      7.477
REMARK INTER + INTRA:          -8.653
REMARK INTER:                  -8.897
REMARK INTRA:                   0.244
REMARK UNBOUND:                 0.085
REMARK  Name = 
REMARK  5 active torsions:
REMARK  status: ('A' for Active; 'I' for Inactive)
REMARK    1  A    between atoms: C_1  and  C_2
REMARK    2  A    between atoms: C_2  and  C_3
REMARK    3  A    between atoms: C_2  and  C_4
REMARK    4  A    between atoms: C_2  and  N_5
REMARK    5  A    between atoms: C_17  and  C_18
REMARK                            x       y       z     vdW  Elec       q    Type
REMARK                         _______ _______ _______ _____ _____    ______ ____
ROOT
ATOM      1  N   UNL     1      22.244   3.952  51.886  0.00  0.00    +0.000 N 
ATOM      2  C   UNL     1      23.046   2.878  52.223  0.00  0.00    +0.000 A 
ATOM      3  N   UNL     1      24.351   2.931  52.251  0.00  0.00    +0.000 NA
ATOM      4  C   UNL     1      25.107   1.762  52.500  0.00  0.00    +0.000 A 
ATOM      5  C   UNL     1      26.495   1.843  52.400  0.00  0.00    +0.000 A 
ATOM      6  C   UNL     1      27.279   0.699  52.558  0.00  0.00    +0.000 A 
ATOM      7  C   UNL     1      26.671  -0.529  52.823  0.00  0.00    +0.000 A 
ATOM      8 CL   UNL     1      27.649  -1.937  52.983  0.00  0.00    +0.000 Cl
ATOM      9  C   UNL     1      25.286  -0.631  52.941  0.00  0.00    +0.000 A 
ATOM     10  C   UNL     1      24.504   0.514  52.779  0.00  0.00    +0.000 A 
ATOM     11  C   UNL     1      23.059   0.501  52.822  0.00  0.00    +0.000 A 
ATOM     12  N   UNL     1      22.182  -0.450  53.060  0.00  0.00    +0.000 NA
ATOM     13  C   UNL     1      20.969   0.186  52.848  0.00  0.00    +0.000 A 
ATOM     14  N   UNL     1      21.062   1.483  52.503  0.00  0.00    +0.000 NA
ATOM     15  N   UNL     1      22.402   1.659  52.528  0.00  0.00    +0.000 N 
ATOM     16  H   UNL     1      21.316   3.942  52.214  0.00  0.00    +0.000 HD
ENDROOT
BRANCH  13  17
ATOM     17  C   UNL     1      19.660  -0.525  52.971  0.00  0.00    +0.000 A 
ATOM     18  C   UNL     1      18.498  -0.204  52.293  0.00  0.00    +0.000 A 
ATOM     19  C   UNL     1      17.506  -1.126  52.712  0.00  0.00    +0.000 A 
ATOM     20  C   UNL     1      18.117  -1.948  53.629  0.00  0.00    +0.000 A 
ATOM     21  O   UNL     1      19.421  -1.603  53.783  0.00  0.00    +0.000 OA
ENDBRANCH  13  17
BRANCH   1  23
ATOM     22  C   UNL     1      21.541   6.148  50.943  0.00  0.00    +0.000 C 
ATOM     23  C   UNL     1      22.660   5.101  51.080  0.00  0.00    +0.000 C 
ATOM     24  C   UNL     1      23.113   4.621  49.697  0.00  0.00    +0.000 C 
ATOM     25  C   UNL     1      23.845   5.769  51.800  0.00  0.00    +0.000 C 
ENDBRANCH   1  23
TORSDOF 2
ENDMDL
MODEL 9
REMARK VINA RESULT:    -7.362      3.281      6.082
REMARK INTER + INTRA:          -8.138
REMARK INTER:                  -8.189
REMARK INTRA:                   0.051
REMARK UNBOUND:                 0.085
REMARK  Name = 
REMARK  5 active torsions:
REMARK  status: ('A' for Active; 'I' for Inactive)
REMARK    1  A    between atoms: C_1  and  C_2
REMARK    2  A    between atoms: C_2  and  C_3
REMARK    3  A    between atoms: C_2  and  C_4
REMARK    4  A    between atoms: C_2  and  N_5
REMARK    5  A    between atoms: C_17  and  C_18
REMARK                            x       y       z     vdW  Elec       q    Type
REMARK                         _______ _______ _______ _____ _____    ______ ____
ROOT
ATOM      1  N   UNL     1      24.640   0.988  52.177  0.00  0.00    +0.000 N 
ATOM      2  C   UNL     1      24.675   2.051  51.294  0.00  0.00    +0.000 A 
ATOM      3  N   UNL     1      25.776   2.521  50.771  0.00  0.00    +0.000 NA
ATOM      4  C   UNL     1      25.743   3.679  49.961  0.00  0.00    +0.000 A 
ATOM      5  C   UNL     1      26.956   4.212  49.525  0.00  0.00    +0.000 A 
ATOM      6  C   UNL     1      26.978   5.398  48.791  0.00  0.00    +0.000 A 
ATOM      7  C   UNL     1      25.783   6.050  48.486  0.00  0.00    +0.000 A 
ATOM      8 CL   UNL     1      25.830   7.530  47.607  0.00  0.00    +0.000 Cl
ATOM      9  C   UNL     1      24.557   5.528  48.898  0.00  0.00    +0.000 A 
ATOM     10  C   UNL     1      24.538   4.344  49.636  0.00  0.00    +0.000 A 
ATOM     11  C   UNL     1      23.326   3.756  50.161  0.00  0.00    +0.000 A 
ATOM     12  N   UNL     1      22.056   4.084  50.055  0.00  0.00    +0.000 NA
ATOM     13  C   UNL     1      21.428   3.163  50.877  0.00  0.00    +0.000 A 
ATOM     14  N   UNL     1      22.251   2.280  51.472  0.00  0.00    +0.000 NA
ATOM     15  N   UNL     1      23.444   2.664  50.970  0.00  0.00    +0.000 N 
ATOM     16  H   UNL     1      23.795   0.488  52.248  0.00  0.00    +0.000 HD
ENDROOT
BRANCH  13  17
ATOM     17  C   UNL     1      19.950   3.168  51.103  0.00  0.00    +0.000 A 
ATOM     18  C   UNL     1      19.163   2.055  51.340  0.00  0.00    +0.000 A 
ATOM     19  C   UNL     1      17.831   2.515  51.488  0.00  0.00    +0.000 A 
ATOM     20  C   UNL     1      17.880   3.879  51.323  0.00  0.00    +0.000 A 
ATOM     21  O   UNL     1      19.156   4.285  51.103  0.00  0.00    +0.000 OA
ENDBRANCH  13  17
BRANCH   1  23
ATOM     22  C   UNL     1      26.458   1.722  53.714  0.00  0.00    +0.000 C 
ATOM     23  C   UNL     1      25.755   0.545  53.016  0.00  0.00    +0.000 C 
ATOM     24  C   UNL     1      26.755  -0.244  52.164  0.00  0.00    +0.000 C 
ATOM     25  C   UNL     1      25.179  -0.376  54.107  0.00  0.00    +0.000 C 
ENDBRANCH   1  23
TORSDOF 2
ENDMDL
