MODEL 1
REMARK VINA RESULT:    -9.256      0.000      0.000
REMARK INTER + INTRA:         -10.972
REMARK INTER:                 -10.609
REMARK INTRA:                  -0.363
REMARK UNBOUND:                -0.363
REMARK  Name = 
REMARK  8 active torsions:
REMARK  status: ('A' for Active; 'I' for Inactive)
REMARK    1  A    between atoms: C_1  and  C_2
REMARK    2  A    between atoms: C_2  and  C_3
REMARK    3  A    between atoms: C_3  and  C_4
REMARK    4  A    between atoms: C_16  and  C_17
REMARK    5  A    between atoms: C_16  and  C_18
REMARK    6  A    between atoms: C_22  and  C_23
REMARK    7  A    between atoms: C_24  and  C_25
REMARK    8  A    between atoms: C_26  and  O_27
REMARK                            x       y       z     vdW  Elec       q    Type
REMARK                         _______ _______ _______ _____ _____    ______ ____
ROOT
ATOM      1  C   UNL     1      22.275   0.944  52.840  0.00  0.00    +0.000 A 
ATOM      2  C   UNL     1      21.062   1.492  52.600  0.00  0.00    +0.000 A 
ATOM      3  C   UNL     1      20.845   2.912  52.320  0.00  0.00    +0.000 A 
ATOM      4  O   UNL     1      19.732   3.389  52.153  0.00  0.00    +0.000 OA
ATOM      5  O   UNL     1      21.982   3.645  52.172  0.00  0.00    +0.000 OA
ATOM      6  C   UNL     1      23.167   2.937  51.998  0.00  0.00    +0.000 A 
ATOM      7  C   UNL     1      23.967   3.367  50.980  0.00  0.00    +0.000 A 
ATOM      8  C   UNL     1      25.326   3.192  51.106  0.00  0.00    +0.000 A 
ATOM      9  C   UNL     1      25.800   2.313  52.096  0.00  0.00    +0.000 A 
ATOM     10  C   UNL     1      24.876   1.501  52.805  0.00  0.00    +0.000 A 
ATOM     11  C   UNL     1      23.492   1.787  52.688  0.00  0.00    +0.000 A 
ATOM     12  O   UNL     1      25.305   0.490  53.639  0.00  0.00    +0.000 OA
ATOM     13  C   UNL     1      26.721   0.134  53.640  0.00  0.00    +0.000 C 
ATOM     14  C   UNL     1      27.144  -0.186  55.086  0.00  0.00    +0.000 C 
ATOM     15  C   UNL     1      26.894  -1.128  52.786  0.00  0.00    +0.000 C 
ATOM     16  C   UNL     1      27.654   1.195  53.110  0.00  0.00    +0.000 C 
ATOM     17  C   UNL     1      27.227   2.212  52.364  0.00  0.00    +0.000 C 
ATOM     18  O   UNL     1      26.189   3.912  50.324  0.00  0.00    +0.000 OA
ATOM     19  C   UNL     1      25.624   4.538  49.147  0.00  0.00    +0.000 C 
ATOM     20  C   UNL     1      26.552   5.670  48.733  0.00  0.00    +0.000 C 
ATOM     21  C   UNL     1      24.174   5.058  49.282  0.00  0.00    +0.000 C 
ATOM     22  C   UNL     1      23.970   6.241  50.236  0.00  0.00    +0.000 C 
ATOM     23  C   UNL     1      23.330   3.907  49.750  0.00  0.00    +0.000 C 
ENDROOT
BRANCH  23  24
ATOM     24  O   UNL     1      23.299   2.866  48.767  0.00  0.00    +0.000 OA
ATOM     25  H   UNL     1      23.839   2.119  49.070  0.00  0.00    +0.000 HD
ENDBRANCH  23  24
BRANCH   1  26
ATOM     26  C   UNL     1      22.354  -0.552  52.855  0.00  0.00    +0.000 C 
BRANCH  26  28
ATOM     27  C   UNL     1      22.800  -1.432  55.154  0.00  0.00    +0.000 C 
ATOM     28  C   UNL     1      21.732  -1.154  54.112  0.00  0.00    +0.000 C 
ENDBRANCH  26  28
ENDBRANCH   1  26
TORSDOF 3
ENDMDL
MODEL 2
REMARK VINA RESULT:    -8.600      1.530      5.368
REMARK INTER + INTRA:         -10.220
REMARK INTER:                  -9.828
REMARK INTRA:                  -0.392
REMARK UNBOUND:                -0.363
REMARK  Name = 
REMARK  8 active torsions:
REMARK  status: ('A' for Active; 'I' for Inactive)
REMARK    1  A    between atoms: C_1  and  C_2
REMARK    2  A    between atoms: C_2  and  C_3
REMARK    3  A    between atoms: C_3  and  C_4
REMARK    4  A    between atoms: C_16  and  C_17
REMARK    5  A    between atoms: C_16  and  C_18
REMARK    6  A    between atoms: C_22  and  C_23
REMARK    7  A    between atoms: C_24  and  C_25
REMARK    8  A    between atoms: C_26  and  O_27
REMARK                            x       y       z     vdW  Elec       q    Type
REMARK                         _______ _______ _______ _____ _____    ______ ____
ROOT
ATOM      1  C   UNL     1      22.227   1.485  52.831  0.00  0.00    +0.000 A 
ATOM      2  C   UNL     1      21.815   0.433  53.573  0.00  0.00    +0.000 A 
ATOM      3  C   UNL     1      22.542  -0.834  53.673  0.00  0.00    +0.000 A 
ATOM      4  O   UNL     1      22.123  -1.787  54.313  0.00  0.00    +0.000 OA
ATOM      5  O   UNL     1      23.762  -0.842  53.069  0.00  0.00    +0.000 OA
ATOM      6  C   UNL     1      24.294   0.394  52.714  0.00  0.00    +0.000 A 
ATOM      7  C   UNL     1      25.597   0.598  53.065  0.00  0.00    +0.000 A 
ATOM      8  C   UNL     1      26.357   1.429  52.276  0.00  0.00    +0.000 A 
ATOM      9  C   UNL     1      25.701   2.266  51.356  0.00  0.00    +0.000 A 
ATOM     10  C   UNL     1      24.285   2.366  51.394  0.00  0.00    +0.000 A 
ATOM     11  C   UNL     1      23.559   1.427  52.170  0.00  0.00    +0.000 A 
ATOM     12  O   UNL     1      23.615   3.315  50.651  0.00  0.00    +0.000 OA
ATOM     13  C   UNL     1      24.388   4.347  49.967  0.00  0.00    +0.000 C 
ATOM     14  C   UNL     1      23.739   4.619  48.597  0.00  0.00    +0.000 C 
ATOM     15  C   UNL     1      24.318   5.628  50.808  0.00  0.00    +0.000 C 
ATOM     16  C   UNL     1      25.842   4.015  49.732  0.00  0.00    +0.000 C 
ATOM     17  C   UNL     1      26.471   3.050  50.400  0.00  0.00    +0.000 C 
ATOM     18  O   UNL     1      27.724   1.387  52.347  0.00  0.00    +0.000 OA
ATOM     19  C   UNL     1      28.289   0.744  53.515  0.00  0.00    +0.000 C 
ATOM     20  C   UNL     1      29.714   0.332  53.173  0.00  0.00    +0.000 C 
ATOM     21  C   UNL     1      27.504  -0.464  54.074  0.00  0.00    +0.000 C 
ATOM     22  C   UNL     1      27.459  -1.710  53.181  0.00  0.00    +0.000 C 
ATOM     23  C   UNL     1      26.098  -0.001  54.330  0.00  0.00    +0.000 C 
ENDROOT
BRANCH  23  24
ATOM     24  O   UNL     1      26.071   1.007  55.346  0.00  0.00    +0.000 OA
ATOM     25  H   UNL     1      26.472   1.821  55.004  0.00  0.00    +0.000 HD
ENDBRANCH  23  24
BRANCH   1  26
ATOM     26  C   UNL     1      21.510   2.785  53.038  0.00  0.00    +0.000 C 
BRANCH  26  28
ATOM     27  C   UNL     1      20.314   4.221  51.375  0.00  0.00    +0.000 C 
ATOM     28  C   UNL     1      20.277   2.915  52.149  0.00  0.00    +0.000 C 
ENDBRANCH  26  28
ENDBRANCH   1  26
TORSDOF 3
ENDMDL
MODEL 3
REMARK VINA RESULT:    -8.351      1.916      5.423
REMARK INTER + INTRA:          -9.934
REMARK INTER:                  -9.564
REMARK INTRA:                  -0.370
REMARK UNBOUND:                -0.363
REMARK  Name = 
REMARK  8 active torsions:
REMARK  status: ('A' for Active; 'I' for Inactive)
REMARK    1  A    between atoms: C_1  and  C_2
REMARK    2  A    between atoms: C_2  and  C_3
REMARK    3  A    between atoms: C_3  and  C_4
REMARK    4  A    between atoms: C_16  and  C_17
REMARK    5  A    between atoms: C_16  and  C_18
REMARK    6  A    between atoms: C_22  and  C_23
REMARK    7  A    between atoms: C_24  and  C_25
REMARK    8  A    between atoms: C_26  and  O_27
REMARK                            x       y       z     vdW  Elec       q    Type
REMARK                         _______ _______ _______ _____ _____    ______ ____
ROOT
ATOM      1  C   UNL     1      23.681   3.675  49.973  0.00  0.00    +0.000 A 
ATOM      2  C   UNL     1      22.868   4.255  49.062  0.00  0.00    +0.000 A 
ATOM      3  C   UNL     1      21.691   3.605  48.482  0.00  0.00    +0.000 A 
ATOM      4  O   UNL     1      21.000   4.134  47.624  0.00  0.00    +0.000 OA
ATOM      5  O   UNL     1      21.373   2.402  49.034  0.00  0.00    +0.000 OA
ATOM      6  C   UNL     1      21.985   2.085  50.243  0.00  0.00    +0.000 A 
ATOM      7  C   UNL     1      21.156   1.606  51.215  0.00  0.00    +0.000 A 
ATOM      8  C   UNL     1      21.679   0.729  52.136  0.00  0.00    +0.000 A 
ATOM      9  C   UNL     1      23.077   0.614  52.236  0.00  0.00    +0.000 A 
ATOM     10  C   UNL     1      23.901   1.527  51.526  0.00  0.00    +0.000 A 
ATOM     11  C   UNL     1      23.307   2.349  50.535  0.00  0.00    +0.000 A 
ATOM     12  O   UNL     1      25.262   1.581  51.745  0.00  0.00    +0.000 OA
ATOM     13  C   UNL     1      25.825   0.821  52.857  0.00  0.00    +0.000 C 
ATOM     14  C   UNL     1      27.178   0.233  52.412  0.00  0.00    +0.000 C 
ATOM     15  C   UNL     1      26.068   1.790  54.020  0.00  0.00    +0.000 C 
ATOM     16  C   UNL     1      24.970  -0.316  53.361  0.00  0.00    +0.000 C 
ATOM     17  C   UNL     1      23.669  -0.406  53.088  0.00  0.00    +0.000 C 
ATOM     18  O   UNL     1      20.847  -0.058  52.888  0.00  0.00    +0.000 OA
ATOM     19  C   UNL     1      19.458   0.343  52.945  0.00  0.00    +0.000 C 
ATOM     20  C   UNL     1      18.639  -0.875  53.346  0.00  0.00    +0.000 C 
ATOM     21  C   UNL     1      18.878   0.976  51.659  0.00  0.00    +0.000 C 
ATOM     22  C   UNL     1      18.751   0.045  50.448  0.00  0.00    +0.000 C 
ATOM     23  C   UNL     1      19.767   2.130  51.292  0.00  0.00    +0.000 C 
ENDROOT
BRANCH  23  24
ATOM     24  O   UNL     1      19.726   3.146  52.299  0.00  0.00    +0.000 OA
ATOM     25  H   UNL     1      20.346   3.856  52.068  0.00  0.00    +0.000 HD
ENDBRANCH  23  24
BRANCH   1  26
ATOM     26  C   UNL     1      24.683   4.560  50.651  0.00  0.00    +0.000 C 
BRANCH  26  28
ATOM     27  C   UNL     1      26.744   3.851  49.423  0.00  0.00    +0.000 C 
ATOM     28  C   UNL     1      25.797   5.003  49.707  0.00  0.00    +0.000 C 
ENDBRANCH  26  28
ENDBRANCH   1  26
TORSDOF 3
ENDMDL
MODEL 4
REMARK VINA RESULT:    -8.142      1.966      4.980
REMARK INTER + INTRA:          -9.695
REMARK INTER:                  -9.363
REMARK INTRA:                  -0.332
REMARK UNBOUND:                -0.363
REMARK  Name = 
REMARK  8 active torsions:
REMARK  status: ('A' for Active; 'I' for Inactive)
REMARK    1  A    between atoms: C_1  and  C_2
REMARK    2  A    between atoms: C_2  and  C_3
REMARK    3  A    between atoms: C_3  and  C_4
REMARK    4  A    between atoms: C_16  and  C_17
REMARK    5  A    between atoms: C_16  and  C_18
REMARK    6  A    between atoms: C_22  and  C_23
REMARK    7  A    between atoms: C_24  and  C_25
REMARK    8  A    between atoms: C_26  and  O_27
REMARK                            x       y       z     vdW  Elec       q    Type
REMARK                         _______ _______ _______ _____ _____    ______ ____
ROOT
ATOM      1  C   UNL     1      22.619  -0.032  53.335  0.00  0.00    +0.000 A 
ATOM      2  C   UNL     1      23.837  -0.338  53.836  0.00  0.00    +0.000 A 
ATOM      3  C   UNL     1      25.095  -0.131  53.116  0.00  0.00    +0.000 A 
ATOM      4  O   UNL     1      26.179  -0.460  53.574  0.00  0.00    +0.000 OA
ATOM      5  O   UNL     1      24.974   0.535  51.935  0.00  0.00    +0.000 OA
ATOM      6  C   UNL     1      23.769   1.192  51.707  0.00  0.00    +0.000 A 
ATOM      7  C   UNL     1      23.874   2.476  51.255  0.00  0.00    +0.000 A 
ATOM      8  C   UNL     1      22.872   2.962  50.448  0.00  0.00    +0.000 A 
ATOM      9  C   UNL     1      21.658   2.255  50.386  0.00  0.00    +0.000 A 
ATOM     10  C   UNL     1      21.434   1.179  51.285  0.00  0.00    +0.000 A 
ATOM     11  C   UNL     1      22.530   0.677  52.031  0.00  0.00    +0.000 A 
ATOM     12  O   UNL     1      20.193   0.587  51.397  0.00  0.00    +0.000 OA
ATOM     13  C   UNL     1      19.057   1.204  50.719  0.00  0.00    +0.000 C 
ATOM     14  C   UNL     1      18.159   0.087  50.153  0.00  0.00    +0.000 C 
ATOM     15  C   UNL     1      18.257   1.998  51.759  0.00  0.00    +0.000 C 
ATOM     16  C   UNL     1      19.409   2.133  49.584  0.00  0.00    +0.000 C 
ATOM     17  C   UNL     1      20.628   2.649  49.435  0.00  0.00    +0.000 C 
ATOM     18  O   UNL     1      23.086   4.073  49.677  0.00  0.00    +0.000 OA
ATOM     19  C   UNL     1      24.221   4.897  50.034  0.00  0.00    +0.000 C 
ATOM     20  C   UNL     1      24.597   5.723  48.812  0.00  0.00    +0.000 C 
ATOM     21  C   UNL     1      25.462   4.150  50.575  0.00  0.00    +0.000 C 
ATOM     22  C   UNL     1      26.195   3.249  49.574  0.00  0.00    +0.000 C 
ATOM     23  C   UNL     1      25.005   3.312  51.735  0.00  0.00    +0.000 C 
ENDROOT
BRANCH  23  24
ATOM     24  O   UNL     1      24.530   4.138  52.804  0.00  0.00    +0.000 OA
ATOM     25  H   UNL     1      23.742   3.734  53.200  0.00  0.00    +0.000 HD
ENDBRANCH  23  24
BRANCH   1  26
ATOM     26  C   UNL     1      21.464  -0.066  54.290  0.00  0.00    +0.000 C 
BRANCH  26  28
ATOM     27  C   UNL     1      19.443  -1.444  53.765  0.00  0.00    +0.000 C 
ATOM     28  C   UNL     1      20.829  -1.451  54.384  0.00  0.00    +0.000 C 
ENDBRANCH  26  28
ENDBRANCH   1  26
TORSDOF 3
ENDMDL
MODEL 5
REMARK VINA RESULT:    -8.062      1.858      5.124
REMARK INTER + INTRA:          -9.603
REMARK INTER:                  -9.375
REMARK INTRA:                  -0.228
REMARK UNBOUND:                -0.363
REMARK  Name = 
REMARK  8 active torsions:
REMARK  status: ('A' for Active; 'I' for Inactive)
REMARK    1  A    between atoms: C_1  and  C_2
REMARK    2  A    between atoms: C_2  and  C_3
REMARK    3  A    between atoms: C_3  and  C_4
REMARK    4  A    between atoms: C_16  and  C_17
REMARK    5  A    between atoms: C_16  and  C_18
REMARK    6  A    between atoms: C_22  and  C_23
REMARK    7  A    between atoms: C_24  and  C_25
REMARK    8  A    between atoms: C_26  and  O_27
REMARK                            x       y       z     vdW  Elec       q    Type
REMARK                         _______ _______ _______ _____ _____    ______ ____
ROOT
ATOM      1  C   UNL     1      25.367   2.388  51.122  0.00  0.00    +0.000 A 
ATOM      2  C   UNL     1      26.489   2.917  50.583  0.00  0.00    +0.000 A 
ATOM      3  C   UNL     1      26.492   3.937  49.533  0.00  0.00    +0.000 A 
ATOM      4  O   UNL     1      27.521   4.364  49.030  0.00  0.00    +0.000 OA
ATOM      5  O   UNL     1      25.266   4.439  49.222  0.00  0.00    +0.000 OA
ATOM      6  C   UNL     1      24.232   4.168  50.113  0.00  0.00    +0.000 A 
ATOM      7  C   UNL     1      23.459   5.237  50.461  0.00  0.00    +0.000 A 
ATOM      8  C   UNL     1      22.142   5.005  50.784  0.00  0.00    +0.000 A 
ATOM      9  C   UNL     1      21.738   3.685  51.051  0.00  0.00    +0.000 A 
ATOM     10  C   UNL     1      22.722   2.667  51.161  0.00  0.00    +0.000 A 
ATOM     11  C   UNL     1      24.045   2.952  50.738  0.00  0.00    +0.000 A 
ATOM     12  O   UNL     1      22.398   1.405  51.613  0.00  0.00    +0.000 OA
ATOM     13  C   UNL     1      21.065   1.176  52.162  0.00  0.00    +0.000 C 
ATOM     14  C   UNL     1      20.582  -0.216  51.714  0.00  0.00    +0.000 C 
ATOM     15  C   UNL     1      21.173   1.191  53.692  0.00  0.00    +0.000 C 
ATOM     16  C   UNL     1      20.017   2.182  51.753  0.00  0.00    +0.000 C 
ATOM     17  C   UNL     1      20.330   3.375  51.249  0.00  0.00    +0.000 C 
ATOM     18  O   UNL     1      21.240   6.035  50.778  0.00  0.00    +0.000 OA
ATOM     19  C   UNL     1      21.789   7.374  50.804  0.00  0.00    +0.000 C 
ATOM     20  C   UNL     1      20.724   8.323  50.272  0.00  0.00    +0.000 C 
ATOM     21  C   UNL     1      23.117   7.580  50.040  0.00  0.00    +0.000 C 
ATOM     22  C   UNL     1      23.045   7.439  48.515  0.00  0.00    +0.000 C 
ATOM     23  C   UNL     1      24.098   6.575  50.573  0.00  0.00    +0.000 C 
ENDROOT
BRANCH  23  24
ATOM     24  O   UNL     1      24.381   6.823  51.954  0.00  0.00    +0.000 OA
ATOM     25  H   UNL     1      24.243   7.763  52.148  0.00  0.00    +0.000 HD
ENDBRANCH  23  24
BRANCH   1  26
ATOM     26  C   UNL     1      25.535   1.551  52.354  0.00  0.00    +0.000 C 
BRANCH  26  28
ATOM     27  C   UNL     1      26.532  -0.739  52.490  0.00  0.00    +0.000 C 
ATOM     28  C   UNL     1      26.828   0.742  52.333  0.00  0.00    +0.000 C 
ENDBRANCH  26  28
ENDBRANCH   1  26
TORSDOF 3
ENDMDL
MODEL 6
REMARK VINA RESULT:    -7.781      1.630      4.758
REMARK INTER + INTRA:          -9.281
REMARK INTER:                  -8.920
REMARK INTRA:                  -0.361
REMARK UNBOUND:                -0.363
REMARK  Name = 
REMARK  8 active torsions:
REMARK  status: ('A' for Active; 'I' for Inactive)
REMARK    1  A    between atoms: C_1  and  C_2
REMARK    2  A    between atoms: C_2  and  C_3
REMARK    3  A    between atoms: C_3  and  C_4
REMARK    4  A    between atoms: C_16  and  C_17
REMARK    5  A    between atoms: C_16  and  C_18
REMARK    6  A    between atoms: C_22  and  C_23
REMARK    7  A    between atoms: C_24  and  C_25
REMARK    8  A    between atoms: C_26  and  O_27
REMARK                            x       y       z     vdW  Elec       q    Type
REMARK                         _______ _______ _______ _____ _____    ______ ____
ROOT
ATOM      1  C   UNL     1      25.346   1.728  52.245  0.00  0.00    +0.000 A 
ATOM      2  C   UNL     1      26.287   2.427  51.571  0.00  0.00    +0.000 A 
ATOM      3  C   UNL     1      26.056   3.083  50.282  0.00  0.00    +0.000 A 
ATOM      4  O   UNL     1      26.937   3.668  49.672  0.00  0.00    +0.000 OA
ATOM      5  O   UNL     1      24.762   3.065  49.857  0.00  0.00    +0.000 OA
ATOM      6  C   UNL     1      23.797   2.720  50.798  0.00  0.00    +0.000 A 
ATOM      7  C   UNL     1      22.705   3.537  50.849  0.00  0.00    +0.000 A 
ATOM      8  C   UNL     1      21.505   2.988  51.235  0.00  0.00    +0.000 A 
ATOM      9  C   UNL     1      21.512   1.727  51.857  0.00  0.00    +0.000 A 
ATOM     10  C   UNL     1      22.751   1.144  52.231  0.00  0.00    +0.000 A 
ATOM     11  C   UNL     1      23.949   1.717  51.734  0.00  0.00    +0.000 A 
ATOM     12  O   UNL     1      22.800   0.010  53.014  0.00  0.00    +0.000 OA
ATOM     13  C   UNL     1      21.566  -0.482  53.618  0.00  0.00    +0.000 C 
ATOM     14  C   UNL     1      21.577  -2.021  53.572  0.00  0.00    +0.000 C 
ATOM     15  C   UNL     1      21.543  -0.033  55.084  0.00  0.00    +0.000 C 
ATOM     16  C   UNL     1      20.293  -0.009  52.960  0.00  0.00    +0.000 C 
ATOM     17  C   UNL     1      20.259   1.045  52.145  0.00  0.00    +0.000 C 
ATOM     18  O   UNL     1      20.330   3.635  50.957  0.00  0.00    +0.000 OA
ATOM     19  C   UNL     1      20.432   5.037  50.610  0.00  0.00    +0.000 C 
ATOM     20  C   UNL     1      19.171   5.420  49.849  0.00  0.00    +0.000 C 
ATOM     21  C   UNL     1      21.687   5.450  49.806  0.00  0.00    +0.000 C 
ATOM     22  C   UNL     1      21.782   4.898  48.378  0.00  0.00    +0.000 C 
ATOM     23  C   UNL     1      22.886   4.988  50.584  0.00  0.00    +0.000 C 
ENDROOT
BRANCH  23  24
ATOM     24  O   UNL     1      22.968   5.667  51.842  0.00  0.00    +0.000 OA
ATOM     25  H   UNL     1      23.460   6.495  51.731  0.00  0.00    +0.000 HD
ENDBRANCH  23  24
BRANCH   1  26
ATOM     26  C   UNL     1      25.668   1.342  53.657  0.00  0.00    +0.000 C 
BRANCH  26  28
ATOM     27  C   UNL     1      26.193  -1.005  52.966  0.00  0.00    +0.000 C 
ATOM     28  C   UNL     1      26.689   0.210  53.730  0.00  0.00    +0.000 C 
ENDBRANCH  26  28
ENDBRANCH   1  26
TORSDOF 3
ENDMDL
MODEL 7
REMARK VINA RESULT:    -7.605      4.588      8.843
REMARK INTER + INTRA:          -9.079
REMARK INTER:                  -8.849
REMARK INTRA:                  -0.230
REMARK UNBOUND:                -0.363
REMARK  Name = 
REMARK  8 active torsions:
REMARK  status: ('A' for Active; 'I' for Inactive)
REMARK    1  A    between atoms: C_1  and  C_2
REMARK    2  A    between atoms: C_2  and  C_3
REMARK    3  A    between atoms: C_3  and  C_4
REMARK    4  A    between atoms: C_16  and  C_17
REMARK    5  A    between atoms: C_16  and  C_18
REMARK    6  A    between atoms: C_22  and  C_23
REMARK    7  A    between atoms: C_24  and  C_25
REMARK    8  A    between atoms: C_26  and  O_27
REMARK                            x       y       z     vdW  Elec       q    Type
REMARK                         _______ _______ _______ _____ _____    ______ ____
ROOT
ATOM      1  C   UNL     1      27.146   5.677  48.545  0.00  0.00    +0.000 A 
ATOM      2  C   UNL     1      28.422   5.237  48.455  0.00  0.00    +0.000 A 
ATOM      3  C   UNL     1      29.495   5.965  47.776  0.00  0.00    +0.000 A 
ATOM      4  O   UNL     1      30.629   5.522  47.669  0.00  0.00    +0.000 OA
ATOM      5  O   UNL     1      29.156   7.213  47.348  0.00  0.00    +0.000 OA
ATOM      6  C   UNL     1      27.980   7.753  47.859  0.00  0.00    +0.000 A 
ATOM      7  C   UNL     1      28.070   9.037  48.313  0.00  0.00    +0.000 A 
ATOM      8  C   UNL     1      26.948   9.828  48.242  0.00  0.00    +0.000 A 
ATOM      9  C   UNL     1      25.705   9.212  48.015  0.00  0.00    +0.000 A 
ATOM     10  C   UNL     1      25.615   7.795  48.050  0.00  0.00    +0.000 A 
ATOM     11  C   UNL     1      26.815   7.039  48.045  0.00  0.00    +0.000 A 
ATOM     12  O   UNL     1      24.394   7.155  48.031  0.00  0.00    +0.000 OA
ATOM     13  C   UNL     1      23.180   7.954  48.167  0.00  0.00    +0.000 C 
ATOM     14  C   UNL     1      22.101   7.368  47.237  0.00  0.00    +0.000 C 
ATOM     15  C   UNL     1      22.696   7.837  49.618  0.00  0.00    +0.000 C 
ATOM     16  C   UNL     1      23.330   9.418  47.836  0.00  0.00    +0.000 C 
ATOM     17  C   UNL     1      24.517  10.021  47.784  0.00  0.00    +0.000 C 
ATOM     18  O   UNL     1      27.059  11.191  48.326  0.00  0.00    +0.000 OA
ATOM     19  C   UNL     1      28.301  11.705  48.864  0.00  0.00    +0.000 C 
ATOM     20  C   UNL     1      28.447  13.146  48.398  0.00  0.00    +0.000 C 
ATOM     21  C   UNL     1      29.576  10.901  48.519  0.00  0.00    +0.000 C 
ATOM     22  C   UNL     1      29.997  10.905  47.045  0.00  0.00    +0.000 C 
ATOM     23  C   UNL     1      29.337   9.482  48.951  0.00  0.00    +0.000 C 
ENDROOT
BRANCH  23  24
ATOM     24  O   UNL     1      29.177   9.401  50.371  0.00  0.00    +0.000 OA
ATOM     25  H   UNL     1      29.631  10.149  50.790  0.00  0.00    +0.000 HD
ENDBRANCH  23  24
BRANCH   1  26
ATOM     26  C   UNL     1      26.239   4.944  49.485  0.00  0.00    +0.000 C 
BRANCH  26  28
ATOM     27  C   UNL     1      26.488   2.902  50.909  0.00  0.00    +0.000 C 
ATOM     28  C   UNL     1      26.500   3.440  49.489  0.00  0.00    +0.000 C 
ENDBRANCH  26  28
ENDBRANCH   1  26
TORSDOF 3
ENDMDL
MODEL 8
REMARK VINA RESULT:    -7.421      1.959      3.104
REMARK INTER + INTRA:          -8.868
REMARK INTER:                  -8.494
REMARK INTRA:                  -0.374
REMARK UNBOUND:                -0.363
REMARK  Name = 
REMARK  8 active torsions:
REMARK  status: ('A' for Active; 'I' for Inactive)
REMARK    1  A    between atoms: C_1  and  C_2
REMARK    2  A    between atoms: C_2  and  C_3
REMARK    3  A    between atoms: C_3  and  C_4
REMARK    4  A    between atoms: C_16  and  C_17
REMARK    5  A    between atoms: C_16  and  C_18
REMARK    6  A    between atoms: C_22  and  C_23
REMARK    7  A    between atoms: C_24  and  C_25
REMARK    8  A    between atoms: C_26  and  O_27
REMARK                            x       y       z     vdW  Elec       q    Type
REMARK                         _______ _______ _______ _____ _____    ______ ____
ROOT
ATOM      1  C   UNL     1      19.463   1.778  51.197  0.00  0.00    +0.000 A 
ATOM      2  C   UNL     1      18.778   2.721  50.511  0.00  0.00    +0.000 A 
ATOM      3  C   UNL     1      19.275   4.075  50.260  0.00  0.00    +0.000 A 
ATOM      4  O   UNL     1      18.616   4.923  49.678  0.00  0.00    +0.000 OA
ATOM      5  O   UNL     1      20.562   4.292  50.649  0.00  0.00    +0.000 OA
ATOM      6  C   UNL     1      21.328   3.167  50.938  0.00  0.00    +0.000 A 
ATOM      7  C   UNL     1      22.572   3.142  50.376  0.00  0.00    +0.000 A 
ATOM      8  C   UNL     1      23.569   2.471  51.045  0.00  0.00    +0.000 A 
ATOM      9  C   UNL     1      23.210   1.592  52.082  0.00  0.00    +0.000 A 
ATOM     10  C   UNL     1      21.839   1.282  52.285  0.00  0.00    +0.000 A 
ATOM     11  C   UNL     1      20.860   2.064  51.622  0.00  0.00    +0.000 A 
ATOM     12  O   UNL     1      21.453   0.282  53.153  0.00  0.00    +0.000 OA
ATOM     13  C   UNL     1      22.477  -0.590  53.720  0.00  0.00    +0.000 C 
ATOM     14  C   UNL     1      22.110  -0.888  55.186  0.00  0.00    +0.000 C 
ATOM     15  C   UNL     1      22.469  -1.906  52.933  0.00  0.00    +0.000 C 
ATOM     16  C   UNL     1      23.881  -0.036  53.698  0.00  0.00    +0.000 C 
ATOM     17  C   UNL     1      24.236   0.979  52.912  0.00  0.00    +0.000 C 
ATOM     18  O   UNL     1      24.883   2.713  50.743  0.00  0.00    +0.000 OA
ATOM     19  C   UNL     1      25.145   3.374  49.482  0.00  0.00    +0.000 C 
ATOM     20  C   UNL     1      26.525   4.008  49.569  0.00  0.00    +0.000 C 
ATOM     21  C   UNL     1      24.102   4.424  49.036  0.00  0.00    +0.000 C 
ATOM     22  C   UNL     1      24.012   5.691  49.894  0.00  0.00    +0.000 C 
ATOM     23  C   UNL     1      22.761   3.747  49.032  0.00  0.00    +0.000 C 
ENDROOT
BRANCH  23  24
ATOM     24  O   UNL     1      22.724   2.697  48.058  0.00  0.00    +0.000 OA
ATOM     25  H   UNL     1      23.572   2.225  48.060  0.00  0.00    +0.000 HD
ENDBRANCH  23  24
BRANCH   1  26
ATOM     26  C   UNL     1      18.931   0.378  51.143  0.00  0.00    +0.000 C 
BRANCH  26  28
ATOM     27  C   UNL     1      18.180  -1.047  53.057  0.00  0.00    +0.000 C 
ATOM     28  C   UNL     1      17.831   0.136  52.173  0.00  0.00    +0.000 C 
ENDBRANCH  26  28
ENDBRANCH   1  26
TORSDOF 3
ENDMDL
MODEL 9
REMARK VINA RESULT:    -7.152      2.046      5.725
REMARK INTER + INTRA:          -8.560
REMARK INTER:                  -8.315
REMARK INTRA:                  -0.245
REMARK UNBOUND:                -0.363
REMARK  Name = 
REMARK  8 active torsions:
REMARK  status: ('A' for Active; 'I' for Inactive)
REMARK    1  A    between atoms: C_1  and  C_2
REMARK    2  A    between atoms: C_2  and  C_3
REMARK    3  A    between atoms: C_3  and  C_4
REMARK    4  A    between atoms: C_16  and  C_17
REMARK    5  A    between atoms: C_16  and  C_18
REMARK    6  A    between atoms: C_22  and  C_23
REMARK    7  A    between atoms: C_24  and  C_25
REMARK    8  A    between atoms: C_26  and  O_27
REMARK                            x       y       z     vdW  Elec       q    Type
REMARK                         _______ _______ _______ _____ _____    ______ ____
ROOT
ATOM      1  C   UNL     1      24.680   1.785  52.396  0.00  0.00    +0.000 A 
ATOM      2  C   UNL     1      24.576   0.598  53.035  0.00  0.00    +0.000 A 
ATOM      3  C   UNL     1      23.323   0.064  53.574  0.00  0.00    +0.000 A 
ATOM      4  O   UNL     1      23.265  -0.990  54.190  0.00  0.00    +0.000 OA
ATOM      5  O   UNL     1      22.213   0.788  53.262  0.00  0.00    +0.000 OA
ATOM      6  C   UNL     1      22.345   1.734  52.250  0.00  0.00    +0.000 A 
ATOM      7  C   UNL     1      21.364   1.722  51.301  0.00  0.00    +0.000 A 
ATOM      8  C   UNL     1      21.053   2.907  50.677  0.00  0.00    +0.000 A 
ATOM      9  C   UNL     1      21.948   3.986  50.800  0.00  0.00    +0.000 A 
ATOM     10  C   UNL     1      23.217   3.770  51.400  0.00  0.00    +0.000 A 
ATOM     11  C   UNL     1      23.443   2.554  52.093  0.00  0.00    +0.000 A 
ATOM     12  O   UNL     1      24.197   4.740  51.365  0.00  0.00    +0.000 OA
ATOM     13  C   UNL     1      23.987   5.923  50.538  0.00  0.00    +0.000 C 
ATOM     14  C   UNL     1      24.546   7.149  51.284  0.00  0.00    +0.000 C 
ATOM     15  C   UNL     1      24.775   5.738  49.235  0.00  0.00    +0.000 C 
ATOM     16  C   UNL     1      22.549   6.215  50.183  0.00  0.00    +0.000 C 
ATOM     17  C   UNL     1      21.588   5.298  50.284  0.00  0.00    +0.000 C 
ATOM     18  O   UNL     1      19.866   3.044  50.009  0.00  0.00    +0.000 OA
ATOM     19  C   UNL     1      19.171   1.819  49.672  0.00  0.00    +0.000 C 
ATOM     20  C   UNL     1      17.707   2.165  49.439  0.00  0.00    +0.000 C 
ATOM     21  C   UNL     1      19.291   0.665  50.693  0.00  0.00    +0.000 C 
ATOM     22  C   UNL     1      18.614   0.894  52.050  0.00  0.00    +0.000 C 
ATOM     23  C   UNL     1      20.756   0.420  50.919  0.00  0.00    +0.000 C 
ENDROOT
BRANCH  23  24
ATOM     24  O   UNL     1      21.387  -0.034  49.716  0.00  0.00    +0.000 OA
ATOM     25  H   UNL     1      21.241  -0.987  49.615  0.00  0.00    +0.000 HD
ENDBRANCH  23  24
BRANCH   1  26
ATOM     26  C   UNL     1      25.970   2.063  51.686  0.00  0.00    +0.000 C 
BRANCH  26  28
ATOM     27  C   UNL     1      27.895   2.310  53.265  0.00  0.00    +0.000 C 
ATOM     28  C   UNL     1      27.155   1.359  52.341  0.00  0.00    +0.000 C 
ENDBRANCH  26  28
ENDBRANCH   1  26
TORSDOF 3
ENDMDL
