MODEL 1
REMARK VINA RESULT:    -8.151      0.000      0.000
REMARK INTER + INTRA:         -11.573
REMARK INTER:                 -10.534
REMARK INTRA:                  -1.039
REMARK UNBOUND:                -1.039
REMARK  Name = 
REMARK  7 active torsions:
REMARK  status: ('A' for Active; 'I' for Inactive)
REMARK    1  A    between atoms: C_1  and  O_2
REMARK    2  A    between atoms: O_2  and  C_3
REMARK    3  A    between atoms: C_5  and  N_6
REMARK    4  A    between atoms: N_6  and  S_7
REMARK    5  A    between atoms: S_7  and  C_8
REMARK    6  A    between atoms: C_13  and  N_14
REMARK    7  A    between atoms: N_14  and  C_15
REMARK                            x       y       z     vdW  Elec       q    Type
REMARK                         _______ _______ _______ _____ _____    ______ ____
ROOT
ATOM      1  N   UNL     1      23.351   3.245  52.254  0.00  0.00    +0.000 N 
ATOM      2  H   UNL     1      23.080   4.191  52.213  0.00  0.00    +0.000 HD
ENDROOT
BRANCH   1   3
ATOM      3  C   UNL     1      22.243   2.368  52.140  0.00  0.00    +0.000 A 
ATOM      4  C   UNL     1      22.009   1.173  52.904  0.00  0.00    +0.000 A 
ATOM      5  C   UNL     1      22.904   0.099  53.122  0.00  0.00    +0.000 A 
ATOM      6  C   UNL     1      22.453  -1.148  53.582  0.00  0.00    +0.000 A 
ATOM      7  C   UNL     1      21.130  -1.303  53.997  0.00  0.00    +0.000 A 
ATOM      8  C   UNL     1      20.235  -0.272  53.772  0.00  0.00    +0.000 A 
ATOM      9  C   UNL     1      20.664   0.786  53.006  0.00  0.00    +0.000 A 
ATOM     10  N   UNL     1      19.852   1.081  52.018  0.00  0.00    +0.000 NA
ATOM     11  C   UNL     1      20.499   1.430  50.905  0.00  0.00    +0.000 A 
ATOM     12  C   UNL     1      20.700   0.509  49.877  0.00  0.00    +0.000 A 
ATOM     13  C   UNL     1      21.504   0.833  48.787  0.00  0.00    +0.000 A 
ATOM     14  C   UNL     1      21.938   2.145  48.655  0.00  0.00    +0.000 A 
ATOM     15  C   UNL     1      21.849   3.002  49.748  0.00  0.00    +0.000 A 
ATOM     16  C   UNL     1      21.434   2.439  50.959  0.00  0.00    +0.000 A 
ENDBRANCH   1   3
BRANCH   1  22
ATOM     17  C   UNL     1      25.586   2.935  51.283  0.00  0.00    +0.000 A 
ATOM     18  C   UNL     1      26.828   2.296  51.407  0.00  0.00    +0.000 A 
ATOM     19  C   UNL     1      27.274   1.903  52.666  0.00  0.00    +0.000 A 
ATOM     20  C   UNL     1      26.560   2.270  53.799  0.00  0.00    +0.000 A 
ATOM     21  C   UNL     1      25.318   2.903  53.657  0.00  0.00    +0.000 A 
ATOM     22  C   UNL     1      24.753   3.098  52.413  0.00  0.00    +0.000 A 
BRANCH  17  24
ATOM     23  C   UNL     1      25.593   4.555  49.588  0.00  0.00    +0.000 C 
ATOM     24  O   UNL     1      25.185   3.244  50.002  0.00  0.00    +0.000 OA
ENDBRANCH  17  24
BRANCH  19  25
ATOM     25  N   UNL     1      28.369   0.988  52.796  0.00  0.00    +0.000 N 
ATOM     26  H   UNL     1      29.243   1.149  52.373  0.00  0.00    +0.000 HD
BRANCH  25  27
ATOM     27  S   UNL     1      28.051  -0.403  53.739  0.00  0.00    +0.000 S 
ATOM     28  C   UNL     1      29.396  -1.465  53.264  0.00  0.00    +0.000 C 
ATOM     29  O   UNL     1      28.278   0.005  55.112  0.00  0.00    +0.000 OA
ATOM     30  O   UNL     1      26.804  -1.019  53.342  0.00  0.00    +0.000 OA
ENDBRANCH  25  27
ENDBRANCH  19  25
ENDBRANCH   1  22
TORSDOF 5
ENDMDL
MODEL 2
REMARK VINA RESULT:    -7.778      4.477      7.995
REMARK INTER + INTRA:         -11.090
REMARK INTER:                 -10.206
REMARK INTRA:                  -0.884
REMARK UNBOUND:                -1.039
REMARK  Name = 
REMARK  7 active torsions:
REMARK  status: ('A' for Active; 'I' for Inactive)
REMARK    1  A    between atoms: C_1  and  O_2
REMARK    2  A    between atoms: O_2  and  C_3
REMARK    3  A    between atoms: C_5  and  N_6
REMARK    4  A    between atoms: N_6  and  S_7
REMARK    5  A    between atoms: S_7  and  C_8
REMARK    6  A    between atoms: C_13  and  N_14
REMARK    7  A    between atoms: N_14  and  C_15
REMARK                            x       y       z     vdW  Elec       q    Type
REMARK                         _______ _______ _______ _____ _____    ______ ____
ROOT
ATOM      1  N   UNL     1      21.899   0.373  51.888  0.00  0.00    +0.000 N 
ATOM      2  H   UNL     1      22.265  -0.458  51.505  0.00  0.00    +0.000 HD
ENDROOT
BRANCH   1   3
ATOM      3  C   UNL     1      22.904   1.353  52.091  0.00  0.00    +0.000 A 
ATOM      4  C   UNL     1      23.144   2.518  51.284  0.00  0.00    +0.000 A 
ATOM      5  C   UNL     1      23.294   2.579  49.878  0.00  0.00    +0.000 A 
ATOM      6  C   UNL     1      23.864   3.698  49.251  0.00  0.00    +0.000 A 
ATOM      7  C   UNL     1      24.139   4.848  49.990  0.00  0.00    +0.000 A 
ATOM      8  C   UNL     1      24.019   4.802  51.367  0.00  0.00    +0.000 A 
ATOM      9  C   UNL     1      23.790   3.575  51.944  0.00  0.00    +0.000 A 
ATOM     10  N   UNL     1      24.624   3.288  52.916  0.00  0.00    +0.000 NA
ATOM     11  C   UNL     1      24.983   2.004  52.926  0.00  0.00    +0.000 A 
ATOM     12  C   UNL     1      26.193   1.597  52.366  0.00  0.00    +0.000 A 
ATOM     13  C   UNL     1      26.494   0.242  52.243  0.00  0.00    +0.000 A 
ATOM     14  C   UNL     1      25.656  -0.677  52.861  0.00  0.00    +0.000 A 
ATOM     15  C   UNL     1      24.396  -0.267  53.286  0.00  0.00    +0.000 A 
ATOM     16  C   UNL     1      24.008   1.032  52.947  0.00  0.00    +0.000 A 
ENDBRANCH   1   3
BRANCH   1  22
ATOM     17  C   UNL     1      19.988  -0.297  53.278  0.00  0.00    +0.000 A 
ATOM     18  C   UNL     1      18.697  -0.844  53.293  0.00  0.00    +0.000 A 
ATOM     19  C   UNL     1      17.890  -0.723  52.166  0.00  0.00    +0.000 A 
ATOM     20  C   UNL     1      18.307   0.056  51.095  0.00  0.00    +0.000 A 
ATOM     21  C   UNL     1      19.602   0.590  51.093  0.00  0.00    +0.000 A 
ATOM     22  C   UNL     1      20.499   0.292  52.100  0.00  0.00    +0.000 A 
BRANCH  17  24
ATOM     23  C   UNL     1      21.329  -1.815  54.459  0.00  0.00    +0.000 C 
ATOM     24  O   UNL     1      20.750  -0.504  54.408  0.00  0.00    +0.000 OA
ENDBRANCH  17  24
BRANCH  19  25
ATOM     25  N   UNL     1      16.707  -1.521  52.030  0.00  0.00    +0.000 N 
ATOM     26  H   UNL     1      16.738  -2.504  51.985  0.00  0.00    +0.000 HD
BRANCH  25  27
ATOM     27  S   UNL     1      15.240  -0.647  51.949  0.00  0.00    +0.000 S 
ATOM     28  C   UNL     1      14.066  -1.881  52.461  0.00  0.00    +0.000 C 
ATOM     29  O   UNL     1      15.325   0.343  53.004  0.00  0.00    +0.000 OA
ATOM     30  O   UNL     1      14.947  -0.260  50.586  0.00  0.00    +0.000 OA
ENDBRANCH  25  27
ENDBRANCH  19  25
ENDBRANCH   1  22
TORSDOF 5
ENDMDL
MODEL 3
REMARK VINA RESULT:    -7.668      4.249      5.946
REMARK INTER + INTRA:         -10.947
REMARK INTER:                 -10.049
REMARK INTRA:                  -0.898
REMARK UNBOUND:                -1.039
REMARK  Name = 
REMARK  7 active torsions:
REMARK  status: ('A' for Active; 'I' for Inactive)
REMARK    1  A    between atoms: C_1  and  O_2
REMARK    2  A    between atoms: O_2  and  C_3
REMARK    3  A    between atoms: C_5  and  N_6
REMARK    4  A    between atoms: N_6  and  S_7
REMARK    5  A    between atoms: S_7  and  C_8
REMARK    6  A    between atoms: C_13  and  N_14
REMARK    7  A    between atoms: N_14  and  C_15
REMARK                            x       y       z     vdW  Elec       q    Type
REMARK                         _______ _______ _______ _____ _____    ______ ____
ROOT
ATOM      1  N   UNL     1      25.008   4.957  49.054  0.00  0.00    +0.000 N 
ATOM      2  H   UNL     1      24.542   5.163  48.212  0.00  0.00    +0.000 HD
ENDROOT
BRANCH   1   3
ATOM      3  C   UNL     1      24.254   4.088  49.882  0.00  0.00    +0.000 A 
ATOM      4  C   UNL     1      24.762   3.227  50.915  0.00  0.00    +0.000 A 
ATOM      5  C   UNL     1      25.826   2.298  50.819  0.00  0.00    +0.000 A 
ATOM      6  C   UNL     1      25.999   1.283  51.773  0.00  0.00    +0.000 A 
ATOM      7  C   UNL     1      25.222   1.273  52.931  0.00  0.00    +0.000 A 
ATOM      8  C   UNL     1      24.164   2.158  53.033  0.00  0.00    +0.000 A 
ATOM      9  C   UNL     1      23.839   2.891  51.917  0.00  0.00    +0.000 A 
ATOM     10  N   UNL     1      22.567   2.823  51.598  0.00  0.00    +0.000 NA
ATOM     11  C   UNL     1      22.368   2.772  50.279  0.00  0.00    +0.000 A 
ATOM     12  C   UNL     1      22.136   1.555  49.639  0.00  0.00    +0.000 A 
ATOM     13  C   UNL     1      22.079   1.489  48.249  0.00  0.00    +0.000 A 
ATOM     14  C   UNL     1      22.066   2.679  47.533  0.00  0.00    +0.000 A 
ATOM     15  C   UNL     1      22.437   3.858  48.171  0.00  0.00    +0.000 A 
ATOM     16  C   UNL     1      22.922   3.744  49.477  0.00  0.00    +0.000 A 
ENDBRANCH   1   3
BRANCH   1  22
ATOM     17  C   UNL     1      26.347   6.971  49.487  0.00  0.00    +0.000 A 
ATOM     18  C   UNL     1      27.452   7.738  49.092  0.00  0.00    +0.000 A 
ATOM     19  C   UNL     1      28.513   7.123  48.433  0.00  0.00    +0.000 A 
ATOM     20  C   UNL     1      28.536   5.741  48.299  0.00  0.00    +0.000 A 
ATOM     21  C   UNL     1      27.422   4.990  48.693  0.00  0.00    +0.000 A 
ATOM     22  C   UNL     1      26.268   5.603  49.139  0.00  0.00    +0.000 A 
BRANCH  17  24
ATOM     23  C   UNL     1      25.218   9.020  49.645  0.00  0.00    +0.000 C 
ATOM     24  O   UNL     1      25.311   7.657  50.082  0.00  0.00    +0.000 OA
ENDBRANCH  17  24
BRANCH  19  25
ATOM     25  N   UNL     1      29.498   7.907  47.750  0.00  0.00    +0.000 N 
ATOM     26  H   UNL     1      29.433   8.114  46.790  0.00  0.00    +0.000 HD
BRANCH  25  27
ATOM     27  S   UNL     1      30.794   8.458  48.719  0.00  0.00    +0.000 S 
ATOM     28  C   UNL     1      31.943   9.021  47.484  0.00  0.00    +0.000 C 
ATOM     29  O   UNL     1      30.286   9.626  49.411  0.00  0.00    +0.000 OA
ATOM     30  O   UNL     1      31.391   7.362  49.450  0.00  0.00    +0.000 OA
ENDBRANCH  25  27
ENDBRANCH  19  25
ENDBRANCH   1  22
TORSDOF 5
ENDMDL
MODEL 4
REMARK VINA RESULT:    -7.637      1.911      3.774
REMARK INTER + INTRA:         -10.908
REMARK INTER:                 -10.089
REMARK INTRA:                  -0.819
REMARK UNBOUND:                -1.039
REMARK  Name = 
REMARK  7 active torsions:
REMARK  status: ('A' for Active; 'I' for Inactive)
REMARK    1  A    between atoms: C_1  and  O_2
REMARK    2  A    between atoms: O_2  and  C_3
REMARK    3  A    between atoms: C_5  and  N_6
REMARK    4  A    between atoms: N_6  and  S_7
REMARK    5  A    between atoms: S_7  and  C_8
REMARK    6  A    between atoms: C_13  and  N_14
REMARK    7  A    between atoms: N_14  and  C_15
REMARK                            x       y       z     vdW  Elec       q    Type
REMARK                         _______ _______ _______ _____ _____    ______ ____
ROOT
ATOM      1  N   UNL     1      23.249   1.824  52.023  0.00  0.00    +0.000 N 
ATOM      2  H   UNL     1      22.756   2.379  52.670  0.00  0.00    +0.000 HD
ENDROOT
BRANCH   1   3
ATOM      3  C   UNL     1      22.576   1.732  50.778  0.00  0.00    +0.000 A 
ATOM      4  C   UNL     1      22.580   2.709  49.724  0.00  0.00    +0.000 A 
ATOM      5  C   UNL     1      22.307   4.093  49.829  0.00  0.00    +0.000 A 
ATOM      6  C   UNL     1      22.002   4.867  48.698  0.00  0.00    +0.000 A 
ATOM      7  C   UNL     1      22.129   4.319  47.422  0.00  0.00    +0.000 A 
ATOM      8  C   UNL     1      22.374   2.963  47.299  0.00  0.00    +0.000 A 
ATOM      9  C   UNL     1      22.319   2.201  48.442  0.00  0.00    +0.000 A 
ATOM     10  N   UNL     1      21.545   1.147  48.333  0.00  0.00    +0.000 NA
ATOM     11  C   UNL     1      20.852   0.898  49.445  0.00  0.00    +0.000 A 
ATOM     12  C   UNL     1      19.525   1.309  49.567  0.00  0.00    +0.000 A 
ATOM     13  C   UNL     1      18.855   1.182  50.782  0.00  0.00    +0.000 A 
ATOM     14  C   UNL     1      19.471   0.468  51.802  0.00  0.00    +0.000 A 
ATOM     15  C   UNL     1      20.832   0.193  51.711  0.00  0.00    +0.000 A 
ATOM     16  C   UNL     1      21.522   0.770  50.641  0.00  0.00    +0.000 A 
ENDBRANCH   1   3
BRANCH   1  22
ATOM     17  C   UNL     1      25.702   1.835  52.153  0.00  0.00    +0.000 A 
ATOM     18  C   UNL     1      26.863   1.056  52.257  0.00  0.00    +0.000 A 
ATOM     19  C   UNL     1      26.795  -0.199  52.854  0.00  0.00    +0.000 A 
ATOM     20  C   UNL     1      25.619  -0.611  53.468  0.00  0.00    +0.000 A 
ATOM     21  C   UNL     1      24.467   0.176  53.350  0.00  0.00    +0.000 A 
ATOM     22  C   UNL     1      24.455   1.314  52.568  0.00  0.00    +0.000 A 
BRANCH  17  24
ATOM     23  C   UNL     1      26.418   2.910  50.196  0.00  0.00    +0.000 C 
ATOM     24  O   UNL     1      25.834   3.041  51.499  0.00  0.00    +0.000 OA
ENDBRANCH  17  24
BRANCH  19  25
ATOM     25  N   UNL     1      27.869  -1.136  52.704  0.00  0.00    +0.000 N 
ATOM     26  H   UNL     1      27.793  -1.935  52.134  0.00  0.00    +0.000 HD
BRANCH  25  27
ATOM     27  S   UNL     1      29.288  -0.769  53.583  0.00  0.00    +0.000 S 
ATOM     28  C   UNL     1      28.612  -0.040  55.057  0.00  0.00    +0.000 C 
ATOM     29  O   UNL     1      29.855  -2.052  53.948  0.00  0.00    +0.000 OA
ATOM     30  O   UNL     1      30.080   0.224  52.890  0.00  0.00    +0.000 OA
ENDBRANCH  25  27
ENDBRANCH  19  25
ENDBRANCH   1  22
TORSDOF 5
ENDMDL
MODEL 5
REMARK VINA RESULT:    -7.566      3.130      4.770
REMARK INTER + INTRA:         -10.817
REMARK INTER:                 -10.072
REMARK INTRA:                  -0.744
REMARK UNBOUND:                -1.039
REMARK  Name = 
REMARK  7 active torsions:
REMARK  status: ('A' for Active; 'I' for Inactive)
REMARK    1  A    between atoms: C_1  and  O_2
REMARK    2  A    between atoms: O_2  and  C_3
REMARK    3  A    between atoms: C_5  and  N_6
REMARK    4  A    between atoms: N_6  and  S_7
REMARK    5  A    between atoms: S_7  and  C_8
REMARK    6  A    between atoms: C_13  and  N_14
REMARK    7  A    between atoms: N_14  and  C_15
REMARK                            x       y       z     vdW  Elec       q    Type
REMARK                         _______ _______ _______ _____ _____    ______ ____
ROOT
ATOM      1  N   UNL     1      23.160   4.108  52.177  0.00  0.00    +0.000 N 
ATOM      2  H   UNL     1      23.272   4.476  53.083  0.00  0.00    +0.000 HD
ENDROOT
BRANCH   1   3
ATOM      3  C   UNL     1      22.368   2.932  52.173  0.00  0.00    +0.000 A 
ATOM      4  C   UNL     1      22.626   1.719  52.900  0.00  0.00    +0.000 A 
ATOM      5  C   UNL     1      23.828   0.973  52.936  0.00  0.00    +0.000 A 
ATOM      6  C   UNL     1      23.851  -0.355  53.389  0.00  0.00    +0.000 A 
ATOM      7  C   UNL     1      22.715  -0.913  53.976  0.00  0.00    +0.000 A 
ATOM      8  C   UNL     1      21.526  -0.208  53.931  0.00  0.00    +0.000 A 
ATOM      9  C   UNL     1      21.493   0.935  53.169  0.00  0.00    +0.000 A 
ATOM     10  N   UNL     1      20.493   0.970  52.320  0.00  0.00    +0.000 NA
ATOM     11  C   UNL     1      20.830   1.508  51.146  0.00  0.00    +0.000 A 
ATOM     12  C   UNL     1      21.147   0.701  50.055  0.00  0.00    +0.000 A 
ATOM     13  C   UNL     1      21.643   1.263  48.881  0.00  0.00    +0.000 A 
ATOM     14  C   UNL     1      21.632   2.647  48.758  0.00  0.00    +0.000 A 
ATOM     15  C   UNL     1      21.449   3.427  49.895  0.00  0.00    +0.000 A 
ATOM     16  C   UNL     1      21.410   2.757  51.121  0.00  0.00    +0.000 A 
ENDBRANCH   1   3
BRANCH   1  22
ATOM     17  C   UNL     1      24.874   4.321  50.430  0.00  0.00    +0.000 A 
ATOM     18  C   UNL     1      25.858   5.143  49.862  0.00  0.00    +0.000 A 
ATOM     19  C   UNL     1      25.750   6.525  49.984  0.00  0.00    +0.000 A 
ATOM     20  C   UNL     1      24.605   7.084  50.537  0.00  0.00    +0.000 A 
ATOM     21  C   UNL     1      23.635   6.249  51.106  0.00  0.00    +0.000 A 
ATOM     22  C   UNL     1      23.831   4.885  51.198  0.00  0.00    +0.000 A 
BRANCH  17  24
ATOM     23  C   UNL     1      26.386   2.556  50.739  0.00  0.00    +0.000 C 
ATOM     24  O   UNL     1      25.077   2.963  50.319  0.00  0.00    +0.000 OA
ENDBRANCH  17  24
BRANCH  19  25
ATOM     25  N   UNL     1      26.870   7.371  49.696  0.00  0.00    +0.000 N 
ATOM     26  H   UNL     1      27.424   7.771  50.405  0.00  0.00    +0.000 HD
BRANCH  25  27
ATOM     27  S   UNL     1      27.179   7.636  48.035  0.00  0.00    +0.000 S 
ATOM     28  C   UNL     1      27.781   9.309  48.051  0.00  0.00    +0.000 C 
ATOM     29  O   UNL     1      28.295   6.770  47.710  0.00  0.00    +0.000 OA
ATOM     30  O   UNL     1      25.952   7.586  47.271  0.00  0.00    +0.000 OA
ENDBRANCH  25  27
ENDBRANCH  19  25
ENDBRANCH   1  22
TORSDOF 5
ENDMDL
MODEL 6
REMARK VINA RESULT:    -7.421      3.439      5.565
REMARK INTER + INTRA:         -10.628
REMARK INTER:                 -10.020
REMARK INTRA:                  -0.608
REMARK UNBOUND:                -1.039
REMARK  Name = 
REMARK  7 active torsions:
REMARK  status: ('A' for Active; 'I' for Inactive)
REMARK    1  A    between atoms: C_1  and  O_2
REMARK    2  A    between atoms: O_2  and  C_3
REMARK    3  A    between atoms: C_5  and  N_6
REMARK    4  A    between atoms: N_6  and  S_7
REMARK    5  A    between atoms: S_7  and  C_8
REMARK    6  A    between atoms: C_13  and  N_14
REMARK    7  A    between atoms: N_14  and  C_15
REMARK                            x       y       z     vdW  Elec       q    Type
REMARK                         _______ _______ _______ _____ _____    ______ ____
ROOT
ATOM      1  N   UNL     1      24.455   3.930  52.326  0.00  0.00    +0.000 N 
ATOM      2  H   UNL     1      25.072   4.326  52.983  0.00  0.00    +0.000 HD
ENDROOT
BRANCH   1   3
ATOM      3  C   UNL     1      24.110   2.595  52.656  0.00  0.00    +0.000 A 
ATOM      4  C   UNL     1      25.008   1.480  52.782  0.00  0.00    +0.000 A 
ATOM      5  C   UNL     1      25.989   1.052  51.855  0.00  0.00    +0.000 A 
ATOM      6  C   UNL     1      26.554  -0.230  51.927  0.00  0.00    +0.000 A 
ATOM      7  C   UNL     1      26.281  -1.054  53.019  0.00  0.00    +0.000 A 
ATOM      8  C   UNL     1      25.310  -0.664  53.923  0.00  0.00    +0.000 A 
ATOM      9  C   UNL     1      24.553   0.440  53.606  0.00  0.00    +0.000 A 
ATOM     10  N   UNL     1      23.260   0.231  53.693  0.00  0.00    +0.000 NA
ATOM     11  C   UNL     1      22.573   0.840  52.725  0.00  0.00    +0.000 A 
ATOM     12  C   UNL     1      22.161   0.140  51.592  0.00  0.00    +0.000 A 
ATOM     13  C   UNL     1      21.578   0.812  50.520  0.00  0.00    +0.000 A 
ATOM     14  C   UNL     1      21.246   2.151  50.685  0.00  0.00    +0.000 A 
ATOM     15  C   UNL     1      21.787   2.857  51.754  0.00  0.00    +0.000 A 
ATOM     16  C   UNL     1      22.739   2.193  52.532  0.00  0.00    +0.000 A 
ENDBRANCH   1   3
BRANCH   1  22
ATOM     17  C   UNL     1      24.700   4.678  49.999  0.00  0.00    +0.000 A 
ATOM     18  C   UNL     1      24.821   5.779  49.139  0.00  0.00    +0.000 A 
ATOM     19  C   UNL     1      24.296   7.009  49.524  0.00  0.00    +0.000 A 
ATOM     20  C   UNL     1      23.535   7.105  50.682  0.00  0.00    +0.000 A 
ATOM     21  C   UNL     1      23.430   5.998  51.533  0.00  0.00    +0.000 A 
ATOM     22  C   UNL     1      24.132   4.835  51.283  0.00  0.00    +0.000 A 
BRANCH  17  24
ATOM     23  C   UNL     1      26.705   3.643  49.360  0.00  0.00    +0.000 C 
ATOM     24  O   UNL     1      25.294   3.508  49.576  0.00  0.00    +0.000 OA
ENDBRANCH  17  24
BRANCH  19  25
ATOM     25  N   UNL     1      24.664   8.207  48.829  0.00  0.00    +0.000 N 
ATOM     26  H   UNL     1      24.004   8.763  48.354  0.00  0.00    +0.000 HD
BRANCH  25  27
ATOM     27  S   UNL     1      26.326   8.602  48.881  0.00  0.00    +0.000 S 
ATOM     28  C   UNL     1      26.280  10.358  48.608  0.00  0.00    +0.000 C 
ATOM     29  O   UNL     1      26.729   8.382  50.256  0.00  0.00    +0.000 OA
ATOM     30  O   UNL     1      27.038   7.976  47.788  0.00  0.00    +0.000 OA
ENDBRANCH  25  27
ENDBRANCH  19  25
ENDBRANCH   1  22
TORSDOF 5
ENDMDL
MODEL 7
REMARK VINA RESULT:    -7.309      3.966      7.634
REMARK INTER + INTRA:         -10.485
REMARK INTER:                  -9.465
REMARK INTRA:                  -1.019
REMARK UNBOUND:                -1.039
REMARK  Name = 
REMARK  7 active torsions:
REMARK  status: ('A' for Active; 'I' for Inactive)
REMARK    1  A    between atoms: C_1  and  O_2
REMARK    2  A    between atoms: O_2  and  C_3
REMARK    3  A    between atoms: C_5  and  N_6
REMARK    4  A    between atoms: N_6  and  S_7
REMARK    5  A    between atoms: S_7  and  C_8
REMARK    6  A    between atoms: C_13  and  N_14
REMARK    7  A    between atoms: N_14  and  C_15
REMARK                            x       y       z     vdW  Elec       q    Type
REMARK                         _______ _______ _______ _____ _____    ______ ____
ROOT
ATOM      1  N   UNL     1      21.975   0.668  51.192  0.00  0.00    +0.000 N 
ATOM      2  H   UNL     1      22.462  -0.139  50.907  0.00  0.00    +0.000 HD
ENDROOT
BRANCH   1   3
ATOM      3  C   UNL     1      22.843   1.652  51.730  0.00  0.00    +0.000 A 
ATOM      4  C   UNL     1      23.273   2.864  51.088  0.00  0.00    +0.000 A 
ATOM      5  C   UNL     1      23.830   3.005  49.794  0.00  0.00    +0.000 A 
ATOM      6  C   UNL     1      24.523   4.166  49.418  0.00  0.00    +0.000 A 
ATOM      7  C   UNL     1      24.531   5.278  50.260  0.00  0.00    +0.000 A 
ATOM      8  C   UNL     1      24.012   5.153  51.536  0.00  0.00    +0.000 A 
ATOM      9  C   UNL     1      23.661   3.893  51.959  0.00  0.00    +0.000 A 
ATOM     10  N   UNL     1      24.180   3.566  53.120  0.00  0.00    +0.000 NA
ATOM     11  C   UNL     1      24.562   2.289  53.174  0.00  0.00    +0.000 A 
ATOM     12  C   UNL     1      25.895   1.933  52.979  0.00  0.00    +0.000 A 
ATOM     13  C   UNL     1      26.262   0.593  52.887  0.00  0.00    +0.000 A 
ATOM     14  C   UNL     1      25.308  -0.373  53.183  0.00  0.00    +0.000 A 
ATOM     15  C   UNL     1      23.967  -0.007  53.235  0.00  0.00    +0.000 A 
ATOM     16  C   UNL     1      23.655   1.302  52.859  0.00  0.00    +0.000 A 
ENDBRANCH   1   3
BRANCH   1  22
ATOM     17  C   UNL     1      20.001   1.115  49.799  0.00  0.00    +0.000 A 
ATOM     18  C   UNL     1      18.646   1.475  49.786  0.00  0.00    +0.000 A 
ATOM     19  C   UNL     1      17.853   1.199  50.895  0.00  0.00    +0.000 A 
ATOM     20  C   UNL     1      18.367   0.445  51.943  0.00  0.00    +0.000 A 
ATOM     21  C   UNL     1      19.724   0.099  51.944  0.00  0.00    +0.000 A 
ATOM     22  C   UNL     1      20.579   0.559  50.963  0.00  0.00    +0.000 A 
BRANCH  17  24
ATOM     23  C   UNL     1      20.412   2.779  48.199  0.00  0.00    +0.000 C 
ATOM     24  O   UNL     1      20.737   1.471  48.690  0.00  0.00    +0.000 OA
ENDBRANCH  17  24
BRANCH  19  25
ATOM     25  N   UNL     1      16.569   1.816  51.044  0.00  0.00    +0.000 N 
ATOM     26  H   UNL     1      15.734   1.295  51.066  0.00  0.00    +0.000 HD
BRANCH  25  27
ATOM     27  S   UNL     1      16.588   3.521  51.179  0.00  0.00    +0.000 S 
ATOM     28  C   UNL     1      15.370   3.788  52.446  0.00  0.00    +0.000 C 
ATOM     29  O   UNL     1      17.884   3.846  51.739  0.00  0.00    +0.000 OA
ATOM     30  O   UNL     1      16.132   4.138  49.953  0.00  0.00    +0.000 OA
ENDBRANCH  25  27
ENDBRANCH  19  25
ENDBRANCH   1  22
TORSDOF 5
ENDMDL
MODEL 8
REMARK VINA RESULT:    -7.190      3.495      5.489
REMARK INTER + INTRA:         -10.330
REMARK INTER:                  -9.207
REMARK INTRA:                  -1.124
REMARK UNBOUND:                -1.039
REMARK  Name = 
REMARK  7 active torsions:
REMARK  status: ('A' for Active; 'I' for Inactive)
REMARK    1  A    between atoms: C_1  and  O_2
REMARK    2  A    between atoms: O_2  and  C_3
REMARK    3  A    between atoms: C_5  and  N_6
REMARK    4  A    between atoms: N_6  and  S_7
REMARK    5  A    between atoms: S_7  and  C_8
REMARK    6  A    between atoms: C_13  and  N_14
REMARK    7  A    between atoms: N_14  and  C_15
REMARK                            x       y       z     vdW  Elec       q    Type
REMARK                         _______ _______ _______ _____ _____    ______ ____
ROOT
ATOM      1  N   UNL     1      23.346   1.910  50.590  0.00  0.00    +0.000 N 
ATOM      2  H   UNL     1      23.261   1.463  49.717  0.00  0.00    +0.000 HD
ENDROOT
BRANCH   1   3
ATOM      3  C   UNL     1      23.626   0.992  51.634  0.00  0.00    +0.000 A 
ATOM      4  C   UNL     1      22.689   0.460  52.586  0.00  0.00    +0.000 A 
ATOM      5  C   UNL     1      21.776   1.180  53.392  0.00  0.00    +0.000 A 
ATOM      6  C   UNL     1      21.171   0.594  54.515  0.00  0.00    +0.000 A 
ATOM      7  C   UNL     1      21.330  -0.770  54.762  0.00  0.00    +0.000 A 
ATOM      8  C   UNL     1      22.236  -1.485  53.998  0.00  0.00    +0.000 A 
ATOM      9  C   UNL     1      23.046  -0.777  53.144  0.00  0.00    +0.000 A 
ATOM     10  N   UNL     1      24.321  -1.057  53.278  0.00  0.00    +0.000 NA
ATOM     11  C   UNL     1      25.102   0.018  53.156  0.00  0.00    +0.000 A 
ATOM     12  C   UNL     1      25.585   0.681  54.283  0.00  0.00    +0.000 A 
ATOM     13  C   UNL     1      26.272   1.886  54.153  0.00  0.00    +0.000 A 
ATOM     14  C   UNL     1      26.628   2.307  52.878  0.00  0.00    +0.000 A 
ATOM     15  C   UNL     1      26.021   1.714  51.775  0.00  0.00    +0.000 A 
ATOM     16  C   UNL     1      24.990   0.806  52.033  0.00  0.00    +0.000 A 
ENDBRANCH   1   3
BRANCH   1  22
ATOM     17  C   UNL     1      23.020   3.928  49.228  0.00  0.00    +0.000 A 
ATOM     18  C   UNL     1      23.344   5.282  49.062  0.00  0.00    +0.000 A 
ATOM     19  C   UNL     1      23.718   6.038  50.168  0.00  0.00    +0.000 A 
ATOM     20  C   UNL     1      23.630   5.491  51.442  0.00  0.00    +0.000 A 
ATOM     21  C   UNL     1      23.311   4.136  51.591  0.00  0.00    +0.000 A 
ATOM     22  C   UNL     1      23.159   3.312  50.492  0.00  0.00    +0.000 A 
BRANCH  17  24
ATOM     23  C   UNL     1      21.304   3.123  47.847  0.00  0.00    +0.000 C 
ATOM     24  O   UNL     1      22.715   3.230  48.080  0.00  0.00    +0.000 OA
ENDBRANCH  17  24
BRANCH  19  25
ATOM     25  N   UNL     1      24.345   7.315  49.999  0.00  0.00    +0.000 N 
ATOM     26  H   UNL     1      23.872   8.161  50.175  0.00  0.00    +0.000 HD
BRANCH  25  27
ATOM     27  S   UNL     1      25.970   7.268  49.470  0.00  0.00    +0.000 S 
ATOM     28  C   UNL     1      25.811   7.835  47.792  0.00  0.00    +0.000 C 
ATOM     29  O   UNL     1      26.648   8.306  50.222  0.00  0.00    +0.000 OA
ATOM     30  O   UNL     1      26.468   5.910  49.461  0.00  0.00    +0.000 OA
ENDBRANCH  25  27
ENDBRANCH  19  25
ENDBRANCH   1  22
TORSDOF 5
ENDMDL
MODEL 9
REMARK VINA RESULT:    -7.065      4.180      6.608
REMARK INTER + INTRA:         -10.169
REMARK INTER:                  -9.297
REMARK INTRA:                  -0.872
REMARK UNBOUND:                -1.039
REMARK  Name = 
REMARK  7 active torsions:
REMARK  status: ('A' for Active; 'I' for Inactive)
REMARK    1  A    between atoms: C_1  and  O_2
REMARK    2  A    between atoms: O_2  and  C_3
REMARK    3  A    between atoms: C_5  and  N_6
REMARK    4  A    between atoms: N_6  and  S_7
REMARK    5  A    between atoms: S_7  and  C_8
REMARK    6  A    between atoms: C_13  and  N_14
REMARK    7  A    between atoms: N_14  and  C_15
REMARK                            x       y       z     vdW  Elec       q    Type
REMARK                         _______ _______ _______ _____ _____    ______ ____
ROOT
ATOM      1  N   UNL     1      24.803   4.239  49.212  0.00  0.00    +0.000 N 
ATOM      2  H   UNL     1      24.725   3.647  48.428  0.00  0.00    +0.000 HD
ENDROOT
BRANCH   1   3
ATOM      3  C   UNL     1      24.442   3.581  50.415  0.00  0.00    +0.000 A 
ATOM      4  C   UNL     1      25.325   2.900  51.322  0.00  0.00    +0.000 A 
ATOM      5  C   UNL     1      26.289   1.912  51.009  0.00  0.00    +0.000 A 
ATOM      6  C   UNL     1      26.836   1.083  52.001  0.00  0.00    +0.000 A 
ATOM      7  C   UNL     1      26.563   1.331  53.346  0.00  0.00    +0.000 A 
ATOM      8  C   UNL     1      25.608   2.278  53.671  0.00  0.00    +0.000 A 
ATOM      9  C   UNL     1      24.864   2.808  52.643  0.00  0.00    +0.000 A 
ATOM     10  N   UNL     1      23.569   2.753  52.851  0.00  0.00    +0.000 NA
ATOM     11  C   UNL     1      22.880   2.469  51.745  0.00  0.00    +0.000 A 
ATOM     12  C   UNL     1      22.445   1.170  51.488  0.00  0.00    +0.000 A 
ATOM     13  C   UNL     1      21.861   0.850  50.265  0.00  0.00    +0.000 A 
ATOM     14  C   UNL     1      21.550   1.885  49.392  0.00  0.00    +0.000 A 
ATOM     15  C   UNL     1      22.113   3.140  49.602  0.00  0.00    +0.000 A 
ATOM     16  C   UNL     1      23.065   3.243  50.621  0.00  0.00    +0.000 A 
ENDBRANCH   1   3
BRANCH   1  22
ATOM     17  C   UNL     1      26.632   5.812  48.745  0.00  0.00    +0.000 A 
ATOM     18  C   UNL     1      27.108   7.120  48.907  0.00  0.00    +0.000 A 
ATOM     19  C   UNL     1      26.203   8.161  49.090  0.00  0.00    +0.000 A 
ATOM     20  C   UNL     1      24.840   7.923  48.968  0.00  0.00    +0.000 A 
ATOM     21  C   UNL     1      24.380   6.609  48.812  0.00  0.00    +0.000 A 
ATOM     22  C   UNL     1      25.250   5.538  48.857  0.00  0.00    +0.000 A 
BRANCH  17  24
ATOM     23  C   UNL     1      28.885   5.341  48.298  0.00  0.00    +0.000 C 
ATOM     24  O   UNL     1      27.588   4.826  48.626  0.00  0.00    +0.000 OA
ENDBRANCH  17  24
BRANCH  19  25
ATOM     25  N   UNL     1      26.649   9.439  49.562  0.00  0.00    +0.000 N 
ATOM     26  H   UNL     1      26.821   9.617  50.515  0.00  0.00    +0.000 HD
BRANCH  25  27
ATOM     27  S   UNL     1      26.860  10.631  48.355  0.00  0.00    +0.000 S 
ATOM     28  C   UNL     1      28.393  11.377  48.861  0.00  0.00    +0.000 C 
ATOM     29  O   UNL     1      27.112   9.897  47.131  0.00  0.00    +0.000 OA
ATOM     30  O   UNL     1      25.810  11.624  48.424  0.00  0.00    +0.000 OA
ENDBRANCH  25  27
ENDBRANCH  19  25
ENDBRANCH   1  22
TORSDOF 5
ENDMDL
