MODEL 1
REMARK VINA RESULT:    -8.701      0.000      0.000
REMARK INTER + INTRA:         -12.988
REMARK INTER:                 -11.753
REMARK INTRA:                  -1.235
REMARK UNBOUND:                -1.235
REMARK  Name = 
REMARK  7 active torsions:
REMARK  status: ('A' for Active; 'I' for Inactive)
REMARK    1  A    between atoms: C_1  and  C_2
REMARK    2  A    between atoms: C_2  and  N_3
REMARK    3  A    between atoms: N_3  and  C_4
REMARK    4  A    between atoms: C_4  and  C_5
REMARK    5  A    between atoms: N_8  and  C_9
REMARK    6  A    between atoms: C_16  and  C_17
REMARK    7  A    between atoms: N_21  and  C_22
REMARK                            x       y       z     vdW  Elec       q    Type
REMARK                         _______ _______ _______ _____ _____    ______ ____
ROOT
ATOM      1  C   UNL     1      23.884   4.052  51.140  0.00  0.00    +0.000 A 
ATOM      2  C   UNL     1      22.494   4.033  51.308  0.00  0.00    +0.000 A 
ATOM      3  F   UNL     1      21.720   5.012  50.813  0.00  0.00    +0.000 F 
ATOM      4  C   UNL     1      21.847   3.019  52.004  0.00  0.00    +0.000 A 
ATOM      5  C   UNL     1      22.583   1.968  52.565  0.00  0.00    +0.000 A 
ATOM      6  C   UNL     1      21.822   0.929  53.305  0.00  0.00    +0.000 A 
ATOM      7  O   UNL     1      20.614   1.066  53.474  0.00  0.00    +0.000 OA
ATOM      8  C   UNL     1      22.575  -0.217  53.837  0.00  0.00    +0.000 A 
ATOM      9  C   UNL     1      23.908  -0.182  53.690  0.00  0.00    +0.000 A 
ATOM     10  N   UNL     1      24.670   0.802  53.059  0.00  0.00    +0.000 N 
ATOM     11  C   UNL     1      23.986   1.889  52.439  0.00  0.00    +0.000 A 
ATOM     12  C   UNL     1      24.584   2.935  51.683  0.00  0.00    +0.000 A 
ATOM     13  F   UNL     1      25.892   2.875  51.391  0.00  0.00    +0.000 F 
ENDROOT
BRANCH   1  17
ATOM     14  C   UNL     1      25.294   6.508  48.720  0.00  0.00    +0.000 C 
ATOM     15  C   UNL     1      24.555   7.329  49.778  0.00  0.00    +0.000 C 
ATOM     16  C   UNL     1      24.567   6.436  51.014  0.00  0.00    +0.000 C 
ATOM     17  N   UNL     1      24.557   5.073  50.473  0.00  0.00    +0.000 N 
ATOM     18  C   UNL     1      24.799   5.085  49.025  0.00  0.00    +0.000 C 
BRANCH  14  19
ATOM     19  C   UNL     1      26.819   6.701  48.822  0.00  0.00    +0.000 C 
BRANCH  19  20
ATOM     20  N   UNL     1      27.621   5.502  49.082  0.00  0.00    +0.000 N 
ATOM     21  H   UNL     1      27.862   5.484  50.072  0.00  0.00    +0.000 HD
ATOM     22  H   UNL     1      27.055   4.700  48.804  0.00  0.00    +0.000 HD
BRANCH  20  24
ATOM     23  C   UNL     1      29.095   6.763  47.586  0.00  0.00    +0.000 C 
ATOM     24  C   UNL     1      28.855   5.444  48.305  0.00  0.00    +0.000 C 
ENDBRANCH  20  24
ENDBRANCH  19  20
ENDBRANCH  14  19
ENDBRANCH   1  17
BRANCH  10  25
ATOM     25  C   UNL     1      26.151   0.714  53.027  0.00  0.00    +0.000 C 
ATOM     26  C   UNL     1      26.665  -0.631  52.510  0.00  0.00    +0.000 C 
ATOM     27  C   UNL     1      28.101  -0.721  53.028  0.00  0.00    +0.000 C 
ATOM     28  C   UNL     1      28.229   0.325  54.138  0.00  0.00    +0.000 C 
ATOM     29  C   UNL     1      26.815   0.834  54.401  0.00  0.00    +0.000 C 
ENDBRANCH  10  25
BRANCH   8  30
ATOM     30  C   UNL     1      21.990  -1.380  54.524  0.00  0.00    +0.000 C 
ATOM     31  O   UNL     1      20.898  -1.869  54.285  0.00  0.00    +0.000 OA
ATOM     32  O   UNL     1      22.748  -1.855  55.522  0.00  0.00    +0.000 OA
ENDBRANCH   8  30
TORSDOF 6
ENDMDL
MODEL 2
REMARK VINA RESULT:    -8.497      3.601      7.654
REMARK INTER + INTRA:         -12.712
REMARK INTER:                 -11.910
REMARK INTRA:                  -0.802
REMARK UNBOUND:                -1.235
REMARK  Name = 
REMARK  7 active torsions:
REMARK  status: ('A' for Active; 'I' for Inactive)
REMARK    1  A    between atoms: C_1  and  C_2
REMARK    2  A    between atoms: C_2  and  N_3
REMARK    3  A    between atoms: N_3  and  C_4
REMARK    4  A    between atoms: C_4  and  C_5
REMARK    5  A    between atoms: N_8  and  C_9
REMARK    6  A    between atoms: C_16  and  C_17
REMARK    7  A    between atoms: N_21  and  C_22
REMARK                            x       y       z     vdW  Elec       q    Type
REMARK                         _______ _______ _______ _____ _____    ______ ____
ROOT
ATOM      1  C   UNL     1      22.429   0.118  52.843  0.00  0.00    +0.000 A 
ATOM      2  C   UNL     1      22.928  -0.599  53.938  0.00  0.00    +0.000 A 
ATOM      3  F   UNL     1      22.139  -1.420  54.649  0.00  0.00    +0.000 F 
ATOM      4  C   UNL     1      24.249  -0.489  54.354  0.00  0.00    +0.000 A 
ATOM      5  C   UNL     1      25.135   0.358  53.676  0.00  0.00    +0.000 A 
ATOM      6  C   UNL     1      26.527   0.431  54.189  0.00  0.00    +0.000 A 
ATOM      7  O   UNL     1      26.827  -0.167  55.217  0.00  0.00    +0.000 OA
ATOM      8  C   UNL     1      27.484   1.261  53.441  0.00  0.00    +0.000 A 
ATOM      9  C   UNL     1      26.995   1.961  52.406  0.00  0.00    +0.000 A 
ATOM     10  N   UNL     1      25.684   1.971  51.928  0.00  0.00    +0.000 N 
ATOM     11  C   UNL     1      24.733   1.112  52.553  0.00  0.00    +0.000 A 
ATOM     12  C   UNL     1      23.381   0.926  52.153  0.00  0.00    +0.000 A 
ATOM     13  F   UNL     1      22.943   1.492  51.018  0.00  0.00    +0.000 F 
ENDROOT
BRANCH   1  17
ATOM     14  C   UNL     1      18.786   0.557  52.205  0.00  0.00    +0.000 C 
ATOM     15  C   UNL     1      19.478   0.724  50.852  0.00  0.00    +0.000 C 
ATOM     16  C   UNL     1      20.775  -0.063  51.000  0.00  0.00    +0.000 C 
ATOM     17  N   UNL     1      21.102   0.048  52.426  0.00  0.00    +0.000 N 
ATOM     18  C   UNL     1      19.976   0.616  53.176  0.00  0.00    +0.000 C 
BRANCH  14  19
ATOM     19  C   UNL     1      17.967  -0.747  52.260  0.00  0.00    +0.000 C 
BRANCH  19  20
ATOM     20  N   UNL     1      17.605  -1.245  53.590  0.00  0.00    +0.000 N 
ATOM     21  H   UNL     1      17.968  -0.595  54.287  0.00  0.00    +0.000 HD
ATOM     22  H   UNL     1      16.588  -1.315  53.615  0.00  0.00    +0.000 HD
BRANCH  20  24
ATOM     23  C   UNL     1      17.109  -3.642  53.524  0.00  0.00    +0.000 C 
ATOM     24  C   UNL     1      18.132  -2.574  53.881  0.00  0.00    +0.000 C 
ENDBRANCH  20  24
ENDBRANCH  19  20
ENDBRANCH  14  19
ENDBRANCH   1  17
BRANCH  10  25
ATOM     25  C   UNL     1      25.294   2.847  50.796  0.00  0.00    +0.000 C 
ATOM     26  C   UNL     1      26.475   3.256  49.914  0.00  0.00    +0.000 C 
ATOM     27  C   UNL     1      25.993   4.505  49.177  0.00  0.00    +0.000 C 
ATOM     28  C   UNL     1      24.765   5.012  49.935  0.00  0.00    +0.000 C 
ATOM     29  C   UNL     1      24.698   4.192  51.221  0.00  0.00    +0.000 C 
ENDBRANCH  10  25
BRANCH   8  30
ATOM     30  C   UNL     1      28.918   1.395  53.744  0.00  0.00    +0.000 C 
ATOM     31  O   UNL     1      29.457   2.391  54.201  0.00  0.00    +0.000 OA
ATOM     32  O   UNL     1      29.643   0.318  53.412  0.00  0.00    +0.000 OA
ENDBRANCH   8  30
TORSDOF 6
ENDMDL
MODEL 3
REMARK VINA RESULT:    -8.298      3.093      6.039
REMARK INTER + INTRA:         -12.444
REMARK INTER:                 -11.077
REMARK INTRA:                  -1.367
REMARK UNBOUND:                -1.235
REMARK  Name = 
REMARK  7 active torsions:
REMARK  status: ('A' for Active; 'I' for Inactive)
REMARK    1  A    between atoms: C_1  and  C_2
REMARK    2  A    between atoms: C_2  and  N_3
REMARK    3  A    between atoms: N_3  and  C_4
REMARK    4  A    between atoms: C_4  and  C_5
REMARK    5  A    between atoms: N_8  and  C_9
REMARK    6  A    between atoms: C_16  and  C_17
REMARK    7  A    between atoms: N_21  and  C_22
REMARK                            x       y       z     vdW  Elec       q    Type
REMARK                         _______ _______ _______ _____ _____    ______ ____
ROOT
ATOM      1  C   UNL     1      23.543   0.157  53.177  0.00  0.00    +0.000 A 
ATOM      2  C   UNL     1      22.864  -0.670  54.079  0.00  0.00    +0.000 A 
ATOM      3  F   UNL     1      23.509  -1.275  55.089  0.00  0.00    +0.000 F 
ATOM      4  C   UNL     1      21.502  -0.922  53.971  0.00  0.00    +0.000 A 
ATOM      5  C   UNL     1      20.757  -0.343  52.936  0.00  0.00    +0.000 A 
ATOM      6  C   UNL     1      19.309  -0.670  52.879  0.00  0.00    +0.000 A 
ATOM      7  O   UNL     1      18.840  -1.487  53.666  0.00  0.00    +0.000 OA
ATOM      8  C   UNL     1      18.503  -0.011  51.841  0.00  0.00    +0.000 A 
ATOM      9  C   UNL     1      19.163   0.764  50.968  0.00  0.00    +0.000 A 
ATOM     10  N   UNL     1      20.529   1.050  50.945  0.00  0.00    +0.000 N 
ATOM     11  C   UNL     1      21.346   0.516  51.985  0.00  0.00    +0.000 A 
ATOM     12  C   UNL     1      22.734   0.765  52.173  0.00  0.00    +0.000 A 
ATOM     13  F   UNL     1      23.352   1.675  51.404  0.00  0.00    +0.000 F 
ENDROOT
BRANCH   1  17
ATOM     14  C   UNL     1      27.012   1.228  54.011  0.00  0.00    +0.000 C 
ATOM     15  C   UNL     1      27.014  -0.300  54.064  0.00  0.00    +0.000 C 
ATOM     16  C   UNL     1      25.872  -0.704  53.138  0.00  0.00    +0.000 C 
ATOM     17  N   UNL     1      24.913   0.400  53.247  0.00  0.00    +0.000 N 
ATOM     18  C   UNL     1      25.507   1.538  53.959  0.00  0.00    +0.000 C 
BRANCH  14  19
ATOM     19  C   UNL     1      27.824   1.750  52.811  0.00  0.00    +0.000 C 
BRANCH  19  20
ATOM     20  N   UNL     1      27.229   2.840  52.033  0.00  0.00    +0.000 N 
ATOM     21  H   UNL     1      26.510   3.286  52.601  0.00  0.00    +0.000 HD
ATOM     22  H   UNL     1      27.986   3.480  51.790  0.00  0.00    +0.000 HD
BRANCH  20  24
ATOM     23  C   UNL     1      26.576   3.549  49.781  0.00  0.00    +0.000 C 
ATOM     24  C   UNL     1      26.622   2.403  50.780  0.00  0.00    +0.000 C 
ENDBRANCH  20  24
ENDBRANCH  19  20
ENDBRANCH  14  19
ENDBRANCH   1  17
BRANCH  10  25
ATOM     25  C   UNL     1      21.112   1.893  49.871  0.00  0.00    +0.000 C 
ATOM     26  C   UNL     1      20.103   2.856  49.245  0.00  0.00    +0.000 C 
ATOM     27  C   UNL     1      20.710   3.224  47.891  0.00  0.00    +0.000 C 
ATOM     28  C   UNL     1      21.790   2.181  47.599  0.00  0.00    +0.000 C 
ATOM     29  C   UNL     1      21.631   1.102  48.667  0.00  0.00    +0.000 C 
ENDBRANCH  10  25
BRANCH   8  30
ATOM     30  C   UNL     1      17.046  -0.144  51.676  0.00  0.00    +0.000 C 
ATOM     31  O   UNL     1      16.209   0.129  52.522  0.00  0.00    +0.000 OA
ATOM     32  O   UNL     1      16.682  -0.669  50.499  0.00  0.00    +0.000 OA
ENDBRANCH   8  30
TORSDOF 6
ENDMDL
MODEL 4
REMARK VINA RESULT:    -8.185      3.965      6.525
REMARK INTER + INTRA:         -12.291
REMARK INTER:                 -11.421
REMARK INTRA:                  -0.870
REMARK UNBOUND:                -1.235
REMARK  Name = 
REMARK  7 active torsions:
REMARK  status: ('A' for Active; 'I' for Inactive)
REMARK    1  A    between atoms: C_1  and  C_2
REMARK    2  A    between atoms: C_2  and  N_3
REMARK    3  A    between atoms: N_3  and  C_4
REMARK    4  A    between atoms: C_4  and  C_5
REMARK    5  A    between atoms: N_8  and  C_9
REMARK    6  A    between atoms: C_16  and  C_17
REMARK    7  A    between atoms: N_21  and  C_22
REMARK                            x       y       z     vdW  Elec       q    Type
REMARK                         _______ _______ _______ _____ _____    ______ ____
ROOT
ATOM      1  C   UNL     1      23.084   0.103  53.423  0.00  0.00    +0.000 A 
ATOM      2  C   UNL     1      22.337  -0.690  54.303  0.00  0.00    +0.000 A 
ATOM      3  F   UNL     1      22.909  -1.273  55.368  0.00  0.00    +0.000 F 
ATOM      4  C   UNL     1      20.982  -0.929  54.114  0.00  0.00    +0.000 A 
ATOM      5  C   UNL     1      20.312  -0.370  53.018  0.00  0.00    +0.000 A 
ATOM      6  C   UNL     1      18.867  -0.682  52.877  0.00  0.00    +0.000 A 
ATOM      7  O   UNL     1      18.337  -1.470  53.654  0.00  0.00    +0.000 OA
ATOM      8  C   UNL     1      18.138  -0.042  51.771  0.00  0.00    +0.000 A 
ATOM      9  C   UNL     1      18.863   0.700  50.922  0.00  0.00    +0.000 A 
ATOM     10  N   UNL     1      20.231   0.968  50.978  0.00  0.00    +0.000 N 
ATOM     11  C   UNL     1      20.972   0.455  52.083  0.00  0.00    +0.000 A 
ATOM     12  C   UNL     1      22.349   0.692  52.353  0.00  0.00    +0.000 A 
ATOM     13  F   UNL     1      23.027   1.572  51.600  0.00  0.00    +0.000 F 
ENDROOT
BRANCH   1  17
ATOM     14  C   UNL     1      26.803   0.194  53.231  0.00  0.00    +0.000 C 
ATOM     15  C   UNL     1      26.327   1.620  52.951  0.00  0.00    +0.000 C 
ATOM     16  C   UNL     1      24.972   1.701  53.644  0.00  0.00    +0.000 C 
ATOM     17  N   UNL     1      24.449   0.332  53.574  0.00  0.00    +0.000 N 
ATOM     18  C   UNL     1      25.491  -0.601  53.127  0.00  0.00    +0.000 C 
BRANCH  14  19
ATOM     19  C   UNL     1      27.514   0.097  54.594  0.00  0.00    +0.000 C 
BRANCH  19  20
ATOM     20  N   UNL     1      28.753   0.866  54.750  0.00  0.00    +0.000 N 
ATOM     21  H   UNL     1      28.541   1.851  54.598  0.00  0.00    +0.000 HD
ATOM     22  H   UNL     1      29.100   0.682  55.692  0.00  0.00    +0.000 HD
BRANCH  20  24
ATOM     23  C   UNL     1      29.958  -1.041  53.798  0.00  0.00    +0.000 C 
ATOM     24  C   UNL     1      29.807   0.472  53.822  0.00  0.00    +0.000 C 
ENDBRANCH  20  24
ENDBRANCH  19  20
ENDBRANCH  14  19
ENDBRANCH   1  17
BRANCH  10  25
ATOM     25  C   UNL     1      20.893   1.773  49.922  0.00  0.00    +0.000 C 
ATOM     26  C   UNL     1      19.918   2.641  49.124  0.00  0.00    +0.000 C 
ATOM     27  C   UNL     1      20.658   2.957  47.823  0.00  0.00    +0.000 C 
ATOM     28  C   UNL     1      21.811   1.956  47.724  0.00  0.00    +0.000 C 
ATOM     29  C   UNL     1      21.581   0.938  48.838  0.00  0.00    +0.000 C 
ENDBRANCH  10  25
BRANCH   8  30
ATOM     30  C   UNL     1      16.693  -0.163  51.517  0.00  0.00    +0.000 C 
ATOM     31  O   UNL     1      15.807   0.161  52.292  0.00  0.00    +0.000 OA
ATOM     32  O   UNL     1      16.397  -0.737  50.344  0.00  0.00    +0.000 OA
ENDBRANCH   8  30
TORSDOF 6
ENDMDL
MODEL 5
REMARK VINA RESULT:    -8.037      3.519      6.405
REMARK INTER + INTRA:         -12.091
REMARK INTER:                 -10.878
REMARK INTRA:                  -1.214
REMARK UNBOUND:                -1.235
REMARK  Name = 
REMARK  7 active torsions:
REMARK  status: ('A' for Active; 'I' for Inactive)
REMARK    1  A    between atoms: C_1  and  C_2
REMARK    2  A    between atoms: C_2  and  N_3
REMARK    3  A    between atoms: N_3  and  C_4
REMARK    4  A    between atoms: C_4  and  C_5
REMARK    5  A    between atoms: N_8  and  C_9
REMARK    6  A    between atoms: C_16  and  C_17
REMARK    7  A    between atoms: N_21  and  C_22
REMARK                            x       y       z     vdW  Elec       q    Type
REMARK                         _______ _______ _______ _____ _____    ______ ____
ROOT
ATOM      1  C   UNL     1      22.094   0.885  52.056  0.00  0.00    +0.000 A 
ATOM      2  C   UNL     1      22.423   0.054  53.134  0.00  0.00    +0.000 A 
ATOM      3  F   UNL     1      21.491  -0.700  53.739  0.00  0.00    +0.000 F 
ATOM      4  C   UNL     1      23.713  -0.024  53.642  0.00  0.00    +0.000 A 
ATOM      5  C   UNL     1      24.741   0.742  53.076  0.00  0.00    +0.000 A 
ATOM      6  C   UNL     1      26.092   0.614  53.683  0.00  0.00    +0.000 A 
ATOM      7  O   UNL     1      26.243  -0.071  54.689  0.00  0.00    +0.000 OA
ATOM      8  C   UNL     1      27.193   1.358  53.052  0.00  0.00    +0.000 A 
ATOM      9  C   UNL     1      26.868   2.167  52.033  0.00  0.00    +0.000 A 
ATOM     10  N   UNL     1      25.606   2.366  51.472  0.00  0.00    +0.000 N 
ATOM     11  C   UNL     1      24.515   1.599  51.979  0.00  0.00    +0.000 A 
ATOM     12  C   UNL     1      23.183   1.604  51.481  0.00  0.00    +0.000 A 
ATOM     13  F   UNL     1      22.901   2.280  50.357  0.00  0.00    +0.000 F 
ENDROOT
BRANCH   1  17
ATOM     14  C   UNL     1      18.821   0.529  50.313  0.00  0.00    +0.000 C 
ATOM     15  C   UNL     1      18.513   0.488  51.811  0.00  0.00    +0.000 C 
ATOM     16  C   UNL     1      19.670   1.251  52.447  0.00  0.00    +0.000 C 
ATOM     17  N   UNL     1      20.802   1.003  51.549  0.00  0.00    +0.000 N 
ATOM     18  C   UNL     1      20.351   0.371  50.303  0.00  0.00    +0.000 C 
BRANCH  14  19
ATOM     19  C   UNL     1      18.298   1.826  49.667  0.00  0.00    +0.000 C 
BRANCH  19  20
ATOM     20  N   UNL     1      18.872   2.197  48.370  0.00  0.00    +0.000 N 
ATOM     21  H   UNL     1      19.413   1.407  48.019  0.00  0.00    +0.000 HD
ATOM     22  H   UNL     1      18.092   2.438  47.758  0.00  0.00    +0.000 HD
BRANCH  20  24
ATOM     23  C   UNL     1      21.037   3.102  47.668  0.00  0.00    +0.000 C 
ATOM     24  C   UNL     1      19.746   3.364  48.429  0.00  0.00    +0.000 C 
ENDBRANCH  20  24
ENDBRANCH  19  20
ENDBRANCH  14  19
ENDBRANCH   1  17
BRANCH  10  25
ATOM     25  C   UNL     1      25.407   3.343  50.373  0.00  0.00    +0.000 C 
ATOM     26  C   UNL     1      26.699   3.688  49.631  0.00  0.00    +0.000 C 
ATOM     27  C   UNL     1      26.405   5.022  48.943  0.00  0.00    +0.000 C 
ATOM     28  C   UNL     1      25.161   5.598  49.622  0.00  0.00    +0.000 C 
ATOM     29  C   UNL     1      24.897   4.711  50.836  0.00  0.00    +0.000 C 
ENDBRANCH  10  25
BRANCH   8  30
ATOM     30  C   UNL     1      28.607   1.296  53.456  0.00  0.00    +0.000 C 
ATOM     31  O   UNL     1      29.304   0.294  53.448  0.00  0.00    +0.000 OA
ATOM     32  O   UNL     1      29.088   2.459  53.916  0.00  0.00    +0.000 OA
ENDBRANCH   8  30
TORSDOF 6
ENDMDL
MODEL 6
REMARK VINA RESULT:    -7.880      1.202      2.160
REMARK INTER + INTRA:         -11.879
REMARK INTER:                 -11.041
REMARK INTRA:                  -0.838
REMARK UNBOUND:                -1.235
REMARK  Name = 
REMARK  7 active torsions:
REMARK  status: ('A' for Active; 'I' for Inactive)
REMARK    1  A    between atoms: C_1  and  C_2
REMARK    2  A    between atoms: C_2  and  N_3
REMARK    3  A    between atoms: N_3  and  C_4
REMARK    4  A    between atoms: C_4  and  C_5
REMARK    5  A    between atoms: N_8  and  C_9
REMARK    6  A    between atoms: C_16  and  C_17
REMARK    7  A    between atoms: N_21  and  C_22
REMARK                            x       y       z     vdW  Elec       q    Type
REMARK                         _______ _______ _______ _____ _____    ______ ____
ROOT
ATOM      1  C   UNL     1      24.499   3.745  50.674  0.00  0.00    +0.000 A 
ATOM      2  C   UNL     1      23.117   3.789  50.892  0.00  0.00    +0.000 A 
ATOM      3  F   UNL     1      22.356   4.746  50.338  0.00  0.00    +0.000 F 
ATOM      4  C   UNL     1      22.466   2.865  51.699  0.00  0.00    +0.000 A 
ATOM      5  C   UNL     1      23.189   1.843  52.327  0.00  0.00    +0.000 A 
ATOM      6  C   UNL     1      22.425   0.901  53.185  0.00  0.00    +0.000 A 
ATOM      7  O   UNL     1      21.229   1.095  53.383  0.00  0.00    +0.000 OA
ATOM      8  C   UNL     1      23.162  -0.218  53.790  0.00  0.00    +0.000 A 
ATOM      9  C   UNL     1      24.488  -0.243  53.594  0.00  0.00    +0.000 A 
ATOM     10  N   UNL     1      25.256   0.654  52.850  0.00  0.00    +0.000 N 
ATOM     11  C   UNL     1      24.583   1.705  52.159  0.00  0.00    +0.000 A 
ATOM     12  C   UNL     1      25.184   2.657  51.291  0.00  0.00    +0.000 A 
ATOM     13  F   UNL     1      26.478   2.526  50.959  0.00  0.00    +0.000 F 
ENDROOT
BRANCH   1  17
ATOM     14  C   UNL     1      26.409   6.623  49.278  0.00  0.00    +0.000 C 
ATOM     15  C   UNL     1      27.239   5.374  48.976  0.00  0.00    +0.000 C 
ATOM     16  C   UNL     1      26.214   4.246  48.949  0.00  0.00    +0.000 C 
ATOM     17  N   UNL     1      25.178   4.678  49.894  0.00  0.00    +0.000 N 
ATOM     18  C   UNL     1      25.380   6.079  50.282  0.00  0.00    +0.000 C 
BRANCH  14  19
ATOM     19  C   UNL     1      25.809   7.223  47.993  0.00  0.00    +0.000 C 
BRANCH  19  20
ATOM     20  N   UNL     1      24.350   7.360  47.945  0.00  0.00    +0.000 N 
ATOM     21  H   UNL     1      24.014   6.920  47.089  0.00  0.00    +0.000 HD
ATOM     22  H   UNL     1      23.982   6.911  48.784  0.00  0.00    +0.000 HD
BRANCH  20  24
ATOM     23  C   UNL     1      22.636   8.877  48.814  0.00  0.00    +0.000 C 
ATOM     24  C   UNL     1      23.890   8.744  47.964  0.00  0.00    +0.000 C 
ENDBRANCH  20  24
ENDBRANCH  19  20
ENDBRANCH  14  19
ENDBRANCH   1  17
BRANCH  10  25
ATOM     25  C   UNL     1      26.731   0.512  52.774  0.00  0.00    +0.000 C 
ATOM     26  C   UNL     1      27.202  -0.942  52.839  0.00  0.00    +0.000 C 
ATOM     27  C   UNL     1      28.668  -0.854  53.265  0.00  0.00    +0.000 C 
ATOM     28  C   UNL     1      28.875   0.554  53.827  0.00  0.00    +0.000 C 
ATOM     29  C   UNL     1      27.484   1.172  53.933  0.00  0.00    +0.000 C 
ENDBRANCH  10  25
BRANCH   8  30
ATOM     30  C   UNL     1      22.568  -1.295  54.600  0.00  0.00    +0.000 C 
ATOM     31  O   UNL     1      21.569  -1.933  54.308  0.00  0.00    +0.000 OA
ATOM     32  O   UNL     1      23.191  -1.498  55.768  0.00  0.00    +0.000 OA
ENDBRANCH   8  30
TORSDOF 6
ENDMDL
MODEL 7
REMARK VINA RESULT:    -7.808      3.771      6.896
REMARK INTER + INTRA:         -11.781
REMARK INTER:                 -10.616
REMARK INTRA:                  -1.165
REMARK UNBOUND:                -1.235
REMARK  Name = 
REMARK  7 active torsions:
REMARK  status: ('A' for Active; 'I' for Inactive)
REMARK    1  A    between atoms: C_1  and  C_2
REMARK    2  A    between atoms: C_2  and  N_3
REMARK    3  A    between atoms: N_3  and  C_4
REMARK    4  A    between atoms: C_4  and  C_5
REMARK    5  A    between atoms: N_8  and  C_9
REMARK    6  A    between atoms: C_16  and  C_17
REMARK    7  A    between atoms: N_21  and  C_22
REMARK                            x       y       z     vdW  Elec       q    Type
REMARK                         _______ _______ _______ _____ _____    ______ ____
ROOT
ATOM      1  C   UNL     1      21.260   0.949  52.215  0.00  0.00    +0.000 A 
ATOM      2  C   UNL     1      21.362   0.009  53.248  0.00  0.00    +0.000 A 
ATOM      3  F   UNL     1      20.267  -0.532  53.805  0.00  0.00    +0.000 F 
ATOM      4  C   UNL     1      22.587  -0.397  53.760  0.00  0.00    +0.000 A 
ATOM      5  C   UNL     1      23.778   0.131  53.244  0.00  0.00    +0.000 A 
ATOM      6  C   UNL     1      25.047  -0.343  53.852  0.00  0.00    +0.000 A 
ATOM      7  O   UNL     1      25.013  -1.095  54.821  0.00  0.00    +0.000 OA
ATOM      8  C   UNL     1      26.305   0.150  53.270  0.00  0.00    +0.000 A 
ATOM      9  C   UNL     1      26.200   1.065  52.295  0.00  0.00    +0.000 A 
ATOM     10  N   UNL     1      25.032   1.585  51.737  0.00  0.00    +0.000 N 
ATOM     11  C   UNL     1      23.782   1.073  52.194  0.00  0.00    +0.000 A 
ATOM     12  C   UNL     1      22.498   1.419  51.688  0.00  0.00    +0.000 A 
ATOM     13  F   UNL     1      22.405   2.199  50.600  0.00  0.00    +0.000 F 
ENDROOT
BRANCH   1  17
ATOM     14  C   UNL     1      18.317   2.862  50.965  0.00  0.00    +0.000 C 
ATOM     15  C   UNL     1      18.787   1.992  49.798  0.00  0.00    +0.000 C 
ATOM     16  C   UNL     1      19.497   0.823  50.471  0.00  0.00    +0.000 C 
ATOM     17  N   UNL     1      20.042   1.395  51.707  0.00  0.00    +0.000 N 
ATOM     18  C   UNL     1      19.497   2.737  51.944  0.00  0.00    +0.000 C 
BRANCH  14  19
ATOM     19  C   UNL     1      16.962   2.380  51.516  0.00  0.00    +0.000 C 
BRANCH  19  20
ATOM     20  N   UNL     1      15.782   2.637  50.686  0.00  0.00    +0.000 N 
ATOM     21  H   UNL     1      16.087   3.080  49.820  0.00  0.00    +0.000 HD
ATOM     22  H   UNL     1      15.330   1.737  50.525  0.00  0.00    +0.000 HD
BRANCH  20  24
ATOM     23  C   UNL     1      15.177   3.770  52.771  0.00  0.00    +0.000 C 
ATOM     24  C   UNL     1      14.795   3.503  51.323  0.00  0.00    +0.000 C 
ENDBRANCH  20  24
ENDBRANCH  19  20
ENDBRANCH  14  19
ENDBRANCH   1  17
BRANCH  10  25
ATOM     25  C   UNL     1      25.091   2.637  50.692  0.00  0.00    +0.000 C 
ATOM     26  C   UNL     1      26.460   2.743  50.019  0.00  0.00    +0.000 C 
ATOM     27  C   UNL     1      26.479   4.142  49.401  0.00  0.00    +0.000 C 
ATOM     28  C   UNL     1      25.349   4.929  50.068  0.00  0.00    +0.000 C 
ATOM     29  C   UNL     1      24.852   4.055  51.217  0.00  0.00    +0.000 C 
ENDBRANCH  10  25
BRANCH   8  30
ATOM     30  C   UNL     1      27.657  -0.265  53.680  0.00  0.00    +0.000 C 
ATOM     31  O   UNL     1      28.321  -1.140  53.149  0.00  0.00    +0.000 OA
ATOM     32  O   UNL     1      28.110   0.371  54.769  0.00  0.00    +0.000 OA
ENDBRANCH   8  30
TORSDOF 6
ENDMDL
MODEL 8
REMARK VINA RESULT:    -7.720      2.797      6.465
REMARK INTER + INTRA:         -11.663
REMARK INTER:                 -10.692
REMARK INTRA:                  -0.971
REMARK UNBOUND:                -1.235
REMARK  Name = 
REMARK  7 active torsions:
REMARK  status: ('A' for Active; 'I' for Inactive)
REMARK    1  A    between atoms: C_1  and  C_2
REMARK    2  A    between atoms: C_2  and  N_3
REMARK    3  A    between atoms: N_3  and  C_4
REMARK    4  A    between atoms: C_4  and  C_5
REMARK    5  A    between atoms: N_8  and  C_9
REMARK    6  A    between atoms: C_16  and  C_17
REMARK    7  A    between atoms: N_21  and  C_22
REMARK                            x       y       z     vdW  Elec       q    Type
REMARK                         _______ _______ _______ _____ _____    ______ ____
ROOT
ATOM      1  C   UNL     1      23.504   0.822  52.930  0.00  0.00    +0.000 A 
ATOM      2  C   UNL     1      22.404  -0.040  53.010  0.00  0.00    +0.000 A 
ATOM      3  F   UNL     1      22.547  -1.313  53.410  0.00  0.00    +0.000 F 
ATOM      4  C   UNL     1      21.120   0.365  52.669  0.00  0.00    +0.000 A 
ATOM      5  C   UNL     1      20.887   1.674  52.227  0.00  0.00    +0.000 A 
ATOM      6  C   UNL     1      19.490   2.029  51.868  0.00  0.00    +0.000 A 
ATOM      7  O   UNL     1      18.621   1.163  51.883  0.00  0.00    +0.000 OA
ATOM      8  C   UNL     1      19.222   3.420  51.473  0.00  0.00    +0.000 A 
ATOM      9  C   UNL     1      20.283   4.235  51.378  0.00  0.00    +0.000 A 
ATOM     10  N   UNL     1      21.618   3.929  51.645  0.00  0.00    +0.000 N 
ATOM     11  C   UNL     1      21.927   2.623  52.125  0.00  0.00    +0.000 A 
ATOM     12  C   UNL     1      23.210   2.157  52.526  0.00  0.00    +0.000 A 
ATOM     13  F   UNL     1      24.234   3.022  52.596  0.00  0.00    +0.000 F 
ENDROOT
BRANCH   1  17
ATOM     14  C   UNL     1      26.625  -0.862  54.070  0.00  0.00    +0.000 C 
ATOM     15  C   UNL     1      26.744  -0.728  52.551  0.00  0.00    +0.000 C 
ATOM     16  C   UNL     1      25.855   0.464  52.214  0.00  0.00    +0.000 C 
ATOM     17  N   UNL     1      24.805   0.430  53.238  0.00  0.00    +0.000 N 
ATOM     18  C   UNL     1      25.142  -0.526  54.299  0.00  0.00    +0.000 C 
BRANCH  14  19
ATOM     19  C   UNL     1      27.620   0.062  54.796  0.00  0.00    +0.000 C 
BRANCH  19  20
ATOM     20  N   UNL     1      28.929   0.253  54.163  0.00  0.00    +0.000 N 
ATOM     21  H   UNL     1      29.594  -0.384  54.600  0.00  0.00    +0.000 HD
ATOM     22  H   UNL     1      28.808   0.065  53.167  0.00  0.00    +0.000 HD
BRANCH  20  24
ATOM     23  C   UNL     1      28.573   2.583  53.501  0.00  0.00    +0.000 C 
ATOM     24  C   UNL     1      29.445   1.612  54.282  0.00  0.00    +0.000 C 
ENDBRANCH  20  24
ENDBRANCH  19  20
ENDBRANCH  14  19
ENDBRANCH   1  17
BRANCH  10  25
ATOM     25  C   UNL     1      22.686   4.940  51.440  0.00  0.00    +0.000 C 
ATOM     26  C   UNL     1      22.164   6.378  51.441  0.00  0.00    +0.000 C 
ATOM     27  C   UNL     1      23.248   7.183  50.725  0.00  0.00    +0.000 C 
ATOM     28  C   UNL     1      24.124   6.171  49.983  0.00  0.00    +0.000 C 
ATOM     29  C   UNL     1      23.400   4.832  50.090  0.00  0.00    +0.000 C 
ENDBRANCH  10  25
BRANCH   8  30
ATOM     30  C   UNL     1      17.896   3.980  51.161  0.00  0.00    +0.000 C 
ATOM     31  O   UNL     1      16.912   3.913  51.879  0.00  0.00    +0.000 OA
ATOM     32  O   UNL     1      17.820   4.543  49.948  0.00  0.00    +0.000 OA
ENDBRANCH   8  30
TORSDOF 6
ENDMDL
MODEL 9
REMARK VINA RESULT:    -7.461      3.621      6.079
REMARK INTER + INTRA:         -11.313
REMARK INTER:                 -10.271
REMARK INTRA:                  -1.042
REMARK UNBOUND:                -1.235
REMARK  Name = 
REMARK  7 active torsions:
REMARK  status: ('A' for Active; 'I' for Inactive)
REMARK    1  A    between atoms: C_1  and  C_2
REMARK    2  A    between atoms: C_2  and  N_3
REMARK    3  A    between atoms: N_3  and  C_4
REMARK    4  A    between atoms: C_4  and  C_5
REMARK    5  A    between atoms: N_8  and  C_9
REMARK    6  A    between atoms: C_16  and  C_17
REMARK    7  A    between atoms: N_21  and  C_22
REMARK                            x       y       z     vdW  Elec       q    Type
REMARK                         _______ _______ _______ _____ _____    ______ ____
ROOT
ATOM      1  C   UNL     1      24.047   3.074  51.742  0.00  0.00    +0.000 A 
ATOM      2  C   UNL     1      23.846   4.368  51.246  0.00  0.00    +0.000 A 
ATOM      3  F   UNL     1      24.878   5.202  51.040  0.00  0.00    +0.000 F 
ATOM      4  C   UNL     1      22.580   4.862  50.959  0.00  0.00    +0.000 A 
ATOM      5  C   UNL     1      21.448   4.062  51.160  0.00  0.00    +0.000 A 
ATOM      6  C   UNL     1      20.128   4.664  50.842  0.00  0.00    +0.000 A 
ATOM      7  O   UNL     1      20.064   5.843  50.507  0.00  0.00    +0.000 OA
ATOM      8  C   UNL     1      18.939   3.809  50.981  0.00  0.00    +0.000 A 
ATOM      9  C   UNL     1      19.137   2.579  51.475  0.00  0.00    +0.000 A 
ATOM     10  N   UNL     1      20.348   1.993  51.846  0.00  0.00    +0.000 N 
ATOM     11  C   UNL     1      21.546   2.739  51.643  0.00  0.00    +0.000 A 
ATOM     12  C   UNL     1      22.871   2.280  51.880  0.00  0.00    +0.000 A 
ATOM     13  F   UNL     1      23.076   0.995  52.208  0.00  0.00    +0.000 F 
ENDROOT
BRANCH   1  17
ATOM     14  C   UNL     1      27.026   1.404  53.228  0.00  0.00    +0.000 C 
ATOM     15  C   UNL     1      26.852   0.800  51.834  0.00  0.00    +0.000 C 
ATOM     16  C   UNL     1      26.114   1.882  51.053  0.00  0.00    +0.000 C 
ATOM     17  N   UNL     1      25.304   2.568  52.066  0.00  0.00    +0.000 N 
ATOM     18  C   UNL     1      25.695   2.149  53.417  0.00  0.00    +0.000 C 
BRANCH  14  19
ATOM     19  C   UNL     1      28.283   2.290  53.304  0.00  0.00    +0.000 C 
BRANCH  19  20
ATOM     20  N   UNL     1      29.474   1.698  53.921  0.00  0.00    +0.000 N 
ATOM     21  H   UNL     1      30.202   1.623  53.210  0.00  0.00    +0.000 HD
ATOM     22  H   UNL     1      29.744   2.310  54.692  0.00  0.00    +0.000 HD
BRANCH  20  24
ATOM     23  C   UNL     1      29.915  -0.694  53.636  0.00  0.00    +0.000 C 
ATOM     24  C   UNL     1      29.244   0.373  54.487  0.00  0.00    +0.000 C 
ENDBRANCH  20  24
ENDBRANCH  19  20
ENDBRANCH  14  19
ENDBRANCH   1  17
BRANCH  10  25
ATOM     25  C   UNL     1      20.387   0.629  52.428  0.00  0.00    +0.000 C 
ATOM     26  C   UNL     1      19.074  -0.137  52.260  0.00  0.00    +0.000 C 
ATOM     27  C   UNL     1      19.128  -1.234  53.325  0.00  0.00    +0.000 C 
ATOM     28  C   UNL     1      20.220  -0.826  54.315  0.00  0.00    +0.000 C 
ATOM     29  C   UNL     1      20.614   0.600  53.942  0.00  0.00    +0.000 C 
ENDBRANCH  10  25
BRANCH   8  30
ATOM     30  C   UNL     1      17.561   4.199  50.638  0.00  0.00    +0.000 C 
ATOM     31  O   UNL     1      17.162   4.481  49.520  0.00  0.00    +0.000 OA
ATOM     32  O   UNL     1      16.746   4.288  51.697  0.00  0.00    +0.000 OA
ENDBRANCH   8  30
TORSDOF 6
ENDMDL
