MODEL 1
REMARK VINA RESULT:   -10.054      0.000      0.000
REMARK INTER + INTRA:         -11.798
REMARK INTER:                 -11.229
REMARK INTRA:                  -0.569
REMARK UNBOUND:                -0.569
REMARK  Name = 
REMARK  2 active torsions:
REMARK  status: ('A' for Active; 'I' for Inactive)
REMARK    1  A    between atoms: N_5  and  C_6
REMARK    2  A    between atoms: C_9  and  C_10
REMARK                            x       y       z     vdW  Elec       q    Type
REMARK                         _______ _______ _______ _____ _____    ______ ____
ROOT
ATOM      1  C   UNL     1      20.776   0.660  52.667  0.00  0.00    +0.000 A 
ATOM      2  C   UNL     1      20.256   1.968  52.580  0.00  0.00    +0.000 A 
ATOM      3  C   UNL     1      19.127   2.229  51.847  0.00  0.00    +0.000 A 
ATOM      4  C   UNL     1      18.406   1.153  51.403  0.00  0.00    +0.000 A 
ATOM      5  O   UNL     1      17.375   1.364  50.544  0.00  0.00    +0.000 OA
ATOM      6  C   UNL     1      16.202   1.253  51.224  0.00  0.00    +0.000 A 
ATOM      7  C   UNL     1      15.337   2.330  51.070  0.00  0.00    +0.000 A 
ATOM      8  C   UNL     1      14.293   2.453  51.964  0.00  0.00    +0.000 A 
ATOM      9  C   UNL     1      14.100   1.458  52.933  0.00  0.00    +0.000 A 
ATOM     10 CL   UNL     1      12.836   1.699  54.080  0.00  0.00    +0.000 Cl
ATOM     11  C   UNL     1      14.947   0.332  53.034  0.00  0.00    +0.000 A 
ATOM     12  C   UNL     1      16.042   0.238  52.180  0.00  0.00    +0.000 A 
ATOM     13  C   UNL     1      17.233  -0.705  52.370  0.00  0.00    +0.000 A 
ATOM     14  O   UNL     1      17.132  -1.802  52.909  0.00  0.00    +0.000 OA
ATOM     15  C   UNL     1      18.568  -0.078  52.015  0.00  0.00    +0.000 A 
ATOM     16  C   UNL     1      19.834  -0.390  52.533  0.00  0.00    +0.000 A 
ENDROOT
BRANCH   1  20
ATOM     17  C   UNL     1      25.073   0.121  53.269  0.00  0.00    +0.000 A 
ATOM     18  C   UNL     1      24.589   1.125  52.412  0.00  0.00    +0.000 A 
ATOM     19  C   UNL     1      23.206   1.334  52.194  0.00  0.00    +0.000 A 
ATOM     20  C   UNL     1      22.253   0.554  52.845  0.00  0.00    +0.000 A 
ATOM     21  C   UNL     1      22.764  -0.366  53.796  0.00  0.00    +0.000 A 
ATOM     22  C   UNL     1      24.120  -0.613  53.976  0.00  0.00    +0.000 A 
BRANCH  17  27
ATOM     23  O   UNL     1      30.279  -0.881  54.281  0.00  0.00    +0.000 OA
ATOM     24  C   UNL     1      29.118  -0.706  53.972  0.00  0.00    +0.000 A 
ATOM     25  C   UNL     1      28.397   0.503  54.455  0.00  0.00    +0.000 A 
ATOM     26  N   UNL     1      27.162   0.741  54.179  0.00  0.00    +0.000 NA
ATOM     27  N   UNL     1      26.459  -0.195  53.424  0.00  0.00    +0.000 N 
ATOM     28  C   UNL     1      27.054  -1.346  52.888  0.00  0.00    +0.000 A 
ATOM     29  O   UNL     1      26.515  -2.172  52.148  0.00  0.00    +0.000 OA
ATOM     30  N   UNL     1      28.367  -1.545  53.206  0.00  0.00    +0.000 N 
ATOM     31  H   UNL     1      28.803  -2.355  52.854  0.00  0.00    +0.000 HD
ENDBRANCH  17  27
ENDBRANCH   1  20
TORSDOF 2
ENDMDL
MODEL 2
REMARK VINA RESULT:    -9.787      4.841     10.489
REMARK INTER + INTRA:         -11.500
REMARK INTER:                 -11.169
REMARK INTRA:                  -0.330
REMARK UNBOUND:                -0.569
REMARK  Name = 
REMARK  2 active torsions:
REMARK  status: ('A' for Active; 'I' for Inactive)
REMARK    1  A    between atoms: N_5  and  C_6
REMARK    2  A    between atoms: C_9  and  C_10
REMARK                            x       y       z     vdW  Elec       q    Type
REMARK                         _______ _______ _______ _____ _____    ______ ____
ROOT
ATOM      1  C   UNL     1      22.997   0.261  52.663  0.00  0.00    +0.000 A 
ATOM      2  C   UNL     1      23.611  -0.550  53.640  0.00  0.00    +0.000 A 
ATOM      3  C   UNL     1      24.916  -0.951  53.504  0.00  0.00    +0.000 A 
ATOM      4  C   UNL     1      25.654  -0.353  52.518  0.00  0.00    +0.000 A 
ATOM      5  O   UNL     1      26.897  -0.833  52.249  0.00  0.00    +0.000 OA
ATOM      6  C   UNL     1      27.822   0.010  52.781  0.00  0.00    +0.000 A 
ATOM      7  C   UNL     1      28.768  -0.604  53.592  0.00  0.00    +0.000 A 
ATOM      8  C   UNL     1      29.528   0.196  54.421  0.00  0.00    +0.000 A 
ATOM      9  C   UNL     1      29.373   1.588  54.359  0.00  0.00    +0.000 A 
ATOM     10 CL   UNL     1      30.280   2.541  55.473  0.00  0.00    +0.000 Cl
ATOM     11  C   UNL     1      28.455   2.204  53.479  0.00  0.00    +0.000 A 
ATOM     12  C   UNL     1      27.637   1.399  52.691  0.00  0.00    +0.000 A 
ATOM     13  C   UNL     1      26.378   1.866  51.957  0.00  0.00    +0.000 A 
ATOM     14  O   UNL     1      26.248   3.005  51.521  0.00  0.00    +0.000 OA
ATOM     15  C   UNL     1      25.243   0.861  51.997  0.00  0.00    +0.000 A 
ATOM     16  C   UNL     1      23.863   1.112  51.934  0.00  0.00    +0.000 A 
ENDROOT
BRANCH   1  20
ATOM     17  C   UNL     1      18.664  -0.266  52.418  0.00  0.00    +0.000 A 
ATOM     18  C   UNL     1      19.384   0.268  51.335  0.00  0.00    +0.000 A 
ATOM     19  C   UNL     1      20.787   0.450  51.374  0.00  0.00    +0.000 A 
ATOM     20  C   UNL     1      21.526   0.085  52.497  0.00  0.00    +0.000 A 
ATOM     21  C   UNL     1      20.794  -0.565  53.524  0.00  0.00    +0.000 A 
ATOM     22  C   UNL     1      19.410  -0.699  53.515  0.00  0.00    +0.000 A 
BRANCH  17  27
ATOM     23  O   UNL     1      13.271  -0.307  52.209  0.00  0.00    +0.000 OA
ATOM     24  C   UNL     1      14.478  -0.367  52.323  0.00  0.00    +0.000 A 
ATOM     25  C   UNL     1      15.310   0.831  52.030  0.00  0.00    +0.000 A 
ATOM     26  N   UNL     1      16.596   0.831  52.114  0.00  0.00    +0.000 NA
ATOM     27  N   UNL     1      17.238  -0.356  52.459  0.00  0.00    +0.000 N 
ATOM     28  C   UNL     1      16.546  -1.530  52.792  0.00  0.00    +0.000 A 
ATOM     29  O   UNL     1      17.044  -2.587  53.181  0.00  0.00    +0.000 OA
ATOM     30  N   UNL     1      15.185  -1.471  52.693  0.00  0.00    +0.000 N 
ATOM     31  H   UNL     1      14.678  -2.288  52.906  0.00  0.00    +0.000 HD
ENDBRANCH  17  27
ENDBRANCH   1  20
TORSDOF 2
ENDMDL
MODEL 3
REMARK VINA RESULT:    -9.521      5.203     10.447
REMARK INTER + INTRA:         -11.203
REMARK INTER:                 -10.578
REMARK INTRA:                  -0.624
REMARK UNBOUND:                -0.569
REMARK  Name = 
REMARK  2 active torsions:
REMARK  status: ('A' for Active; 'I' for Inactive)
REMARK    1  A    between atoms: N_5  and  C_6
REMARK    2  A    between atoms: C_9  and  C_10
REMARK                            x       y       z     vdW  Elec       q    Type
REMARK                         _______ _______ _______ _____ _____    ______ ____
ROOT
ATOM      1  C   UNL     1      22.351   0.724  51.925  0.00  0.00    +0.000 A 
ATOM      2  C   UNL     1      23.319   1.437  51.189  0.00  0.00    +0.000 A 
ATOM      3  C   UNL     1      24.368   2.056  51.819  0.00  0.00    +0.000 A 
ATOM      4  C   UNL     1      24.563   1.765  53.143  0.00  0.00    +0.000 A 
ATOM      5  O   UNL     1      25.488   2.474  53.840  0.00  0.00    +0.000 OA
ATOM      6  C   UNL     1      26.600   1.707  54.008  0.00  0.00    +0.000 A 
ATOM      7  C   UNL     1      27.787   2.311  53.613  0.00  0.00    +0.000 A 
ATOM      8  C   UNL     1      28.896   1.507  53.441  0.00  0.00    +0.000 A 
ATOM      9  C   UNL     1      28.804   0.141  53.742  0.00  0.00    +0.000 A 
ATOM     10 CL   UNL     1      30.188  -0.838  53.430  0.00  0.00    +0.000 Cl
ATOM     11  C   UNL     1      27.608  -0.448  54.209  0.00  0.00    +0.000 A 
ATOM     12  C   UNL     1      26.468   0.344  54.319  0.00  0.00    +0.000 A 
ATOM     13  C   UNL     1      25.038  -0.179  54.469  0.00  0.00    +0.000 A 
ATOM     14  O   UNL     1      24.772  -1.231  55.043  0.00  0.00    +0.000 OA
ATOM     15  C   UNL     1      24.014   0.611  53.677  0.00  0.00    +0.000 A 
ATOM     16  C   UNL     1      22.795   0.161  53.147  0.00  0.00    +0.000 A 
ENDROOT
BRANCH   1  20
ATOM     17  C   UNL     1      18.239   0.602  50.446  0.00  0.00    +0.000 A 
ATOM     18  C   UNL     1      19.263   1.175  49.671  0.00  0.00    +0.000 A 
ATOM     19  C   UNL     1      20.606   1.230  50.113  0.00  0.00    +0.000 A 
ATOM     20  C   UNL     1      20.978   0.693  51.344  0.00  0.00    +0.000 A 
ATOM     21  C   UNL     1      19.951   0.012  52.048  0.00  0.00    +0.000 A 
ATOM     22  C   UNL     1      18.620   0.000  51.645  0.00  0.00    +0.000 A 
BRANCH  17  27
ATOM     23  O   UNL     1      13.011   0.252  49.147  0.00  0.00    +0.000 OA
ATOM     24  C   UNL     1      14.178   0.426  49.435  0.00  0.00    +0.000 A 
ATOM     25  C   UNL     1      15.189  -0.610  49.093  0.00  0.00    +0.000 A 
ATOM     26  N   UNL     1      16.438  -0.497  49.384  0.00  0.00    +0.000 NA
ATOM     27  N   UNL     1      16.855   0.632  50.085  0.00  0.00    +0.000 N 
ATOM     28  C   UNL     1      15.991   1.685  50.423  0.00  0.00    +0.000 A 
ATOM     29  O   UNL     1      16.306   2.743  50.969  0.00  0.00    +0.000 OA
ATOM     30  N   UNL     1      14.679   1.515  50.083  0.00  0.00    +0.000 N 
ATOM     31  H   UNL     1      14.051   2.233  50.323  0.00  0.00    +0.000 HD
ENDBRANCH  17  27
ENDBRANCH   1  20
TORSDOF 2
ENDMDL
MODEL 4
REMARK VINA RESULT:    -9.445      1.195      1.717
REMARK INTER + INTRA:         -11.118
REMARK INTER:                 -10.585
REMARK INTRA:                  -0.533
REMARK UNBOUND:                -0.569
REMARK  Name = 
REMARK  2 active torsions:
REMARK  status: ('A' for Active; 'I' for Inactive)
REMARK    1  A    between atoms: N_5  and  C_6
REMARK    2  A    between atoms: C_9  and  C_10
REMARK                            x       y       z     vdW  Elec       q    Type
REMARK                         _______ _______ _______ _____ _____    ______ ____
ROOT
ATOM      1  C   UNL     1      20.626   0.905  52.502  0.00  0.00    +0.000 A 
ATOM      2  C   UNL     1      20.333   2.284  52.530  0.00  0.00    +0.000 A 
ATOM      3  C   UNL     1      19.312   2.803  51.776  0.00  0.00    +0.000 A 
ATOM      4  C   UNL     1      18.456   1.913  51.185  0.00  0.00    +0.000 A 
ATOM      5  O   UNL     1      17.532   2.379  50.304  0.00  0.00    +0.000 OA
ATOM      6  C   UNL     1      16.314   2.402  50.911  0.00  0.00    +0.000 A 
ATOM      7  C   UNL     1      15.649   3.619  50.833  0.00  0.00    +0.000 A 
ATOM      8  C   UNL     1      14.583   3.830  51.683  0.00  0.00    +0.000 A 
ATOM      9  C   UNL     1      14.167   2.792  52.529  0.00  0.00    +0.000 A 
ATOM     10 CL   UNL     1      12.887   3.129  53.633  0.00  0.00    +0.000 Cl
ATOM     11  C   UNL     1      14.810   1.534  52.550  0.00  0.00    +0.000 A 
ATOM     12  C   UNL     1      15.929   1.340  51.744  0.00  0.00    +0.000 A 
ATOM     13  C   UNL     1      16.935   0.195  51.889  0.00  0.00    +0.000 A 
ATOM     14  O   UNL     1      16.621  -0.917  52.301  0.00  0.00    +0.000 OA
ATOM     15  C   UNL     1      18.374   0.619  51.668  0.00  0.00    +0.000 A 
ATOM     16  C   UNL     1      19.536   0.048  52.210  0.00  0.00    +0.000 A 
ENDROOT
BRANCH   1  20
ATOM     17  C   UNL     1      24.867   0.036  53.110  0.00  0.00    +0.000 A 
ATOM     18  C   UNL     1      23.879  -0.702  53.787  0.00  0.00    +0.000 A 
ATOM     19  C   UNL     1      22.497  -0.453  53.614  0.00  0.00    +0.000 A 
ATOM     20  C   UNL     1      22.051   0.534  52.738  0.00  0.00    +0.000 A 
ATOM     21  C   UNL     1      23.061   1.176  51.977  0.00  0.00    +0.000 A 
ATOM     22  C   UNL     1      24.422   0.975  52.180  0.00  0.00    +0.000 A 
BRANCH  17  27
ATOM     23  O   UNL     1      30.184  -0.752  53.606  0.00  0.00    +0.000 OA
ATOM     24  C   UNL     1      28.993  -0.516  53.570  0.00  0.00    +0.000 A 
ATOM     25  C   UNL     1      28.055  -1.522  53.003  0.00  0.00    +0.000 A 
ATOM     26  N   UNL     1      26.785  -1.329  52.920  0.00  0.00    +0.000 NA
ATOM     27  N   UNL     1      26.270  -0.107  53.347  0.00  0.00    +0.000 N 
ATOM     28  C   UNL     1      27.062   0.892  53.932  0.00  0.00    +0.000 A 
ATOM     29  O   UNL     1      26.663   1.959  54.402  0.00  0.00    +0.000 OA
ATOM     30  N   UNL     1      28.400   0.632  54.002  0.00  0.00    +0.000 N 
ATOM     31  H   UNL     1      28.979   1.325  54.394  0.00  0.00    +0.000 HD
ENDBRANCH  17  27
ENDBRANCH   1  20
TORSDOF 2
ENDMDL
MODEL 5
REMARK VINA RESULT:    -9.162      7.052     10.703
REMARK INTER + INTRA:         -10.802
REMARK INTER:                 -10.210
REMARK INTRA:                  -0.592
REMARK UNBOUND:                -0.569
REMARK  Name = 
REMARK  2 active torsions:
REMARK  status: ('A' for Active; 'I' for Inactive)
REMARK    1  A    between atoms: N_5  and  C_6
REMARK    2  A    between atoms: C_9  and  C_10
REMARK                            x       y       z     vdW  Elec       q    Type
REMARK                         _______ _______ _______ _____ _____    ______ ____
ROOT
ATOM      1  C   UNL     1      24.802   4.404  50.660  0.00  0.00    +0.000 A 
ATOM      2  C   UNL     1      26.070   3.909  50.290  0.00  0.00    +0.000 A 
ATOM      3  C   UNL     1      26.783   4.489  49.272  0.00  0.00    +0.000 A 
ATOM      4  C   UNL     1      26.327   5.688  48.793  0.00  0.00    +0.000 A 
ATOM      5  O   UNL     1      26.910   6.214  47.684  0.00  0.00    +0.000 OA
ATOM      6  C   UNL     1      27.735   7.229  48.057  0.00  0.00    +0.000 A 
ATOM      7  C   UNL     1      29.031   7.135  47.566  0.00  0.00    +0.000 A 
ATOM      8  C   UNL     1      30.004   7.923  48.148  0.00  0.00    +0.000 A 
ATOM      9  C   UNL     1      29.637   8.834  49.149  0.00  0.00    +0.000 A 
ATOM     10 CL   UNL     1      30.897   9.734  49.906  0.00  0.00    +0.000 Cl
ATOM     11  C   UNL     1      28.302   8.969  49.592  0.00  0.00    +0.000 A 
ATOM     12  C   UNL     1      27.330   8.128  49.057  0.00  0.00    +0.000 A 
ATOM     13  C   UNL     1      25.938   7.896  49.649  0.00  0.00    +0.000 A 
ATOM     14  O   UNL     1      25.329   8.760  50.272  0.00  0.00    +0.000 OA
ATOM     15  C   UNL     1      25.474   6.454  49.568  0.00  0.00    +0.000 A 
ATOM     16  C   UNL     1      24.583   5.783  50.420  0.00  0.00    +0.000 A 
ENDROOT
BRANCH   1  20
ATOM     17  C   UNL     1      21.815   1.631  52.239  0.00  0.00    +0.000 A 
ATOM     18  C   UNL     1      23.071   1.165  51.811  0.00  0.00    +0.000 A 
ATOM     19  C   UNL     1      24.065   2.031  51.299  0.00  0.00    +0.000 A 
ATOM     20  C   UNL     1      23.845   3.404  51.213  0.00  0.00    +0.000 A 
ATOM     21  C   UNL     1      22.620   3.860  51.765  0.00  0.00    +0.000 A 
ATOM     22  C   UNL     1      21.618   3.012  52.222  0.00  0.00    +0.000 A 
BRANCH  17  27
ATOM     23  O   UNL     1      17.720  -1.709  53.345  0.00  0.00    +0.000 OA
ATOM     24  C   UNL     1      18.655  -0.949  53.191  0.00  0.00    +0.000 A 
ATOM     25  C   UNL     1      18.724  -0.096  51.974  0.00  0.00    +0.000 A 
ATOM     26  N   UNL     1      19.695   0.718  51.740  0.00  0.00    +0.000 NA
ATOM     27  N   UNL     1      20.746   0.775  52.652  0.00  0.00    +0.000 N 
ATOM     28  C   UNL     1      20.760   0.042  53.848  0.00  0.00    +0.000 A 
ATOM     29  O   UNL     1      21.616   0.103  54.733  0.00  0.00    +0.000 OA
ATOM     30  N   UNL     1      19.703  -0.799  54.048  0.00  0.00    +0.000 N 
ATOM     31  H   UNL     1      19.698  -1.336  54.873  0.00  0.00    +0.000 HD
ENDBRANCH  17  27
ENDBRANCH   1  20
TORSDOF 2
ENDMDL
MODEL 6
REMARK VINA RESULT:    -9.134      4.950     10.621
REMARK INTER + INTRA:         -10.771
REMARK INTER:                 -10.188
REMARK INTRA:                  -0.583
REMARK UNBOUND:                -0.569
REMARK  Name = 
REMARK  2 active torsions:
REMARK  status: ('A' for Active; 'I' for Inactive)
REMARK    1  A    between atoms: N_5  and  C_6
REMARK    2  A    between atoms: C_9  and  C_10
REMARK                            x       y       z     vdW  Elec       q    Type
REMARK                         _______ _______ _______ _____ _____    ______ ____
ROOT
ATOM      1  C   UNL     1      22.637   1.058  52.428  0.00  0.00    +0.000 A 
ATOM      2  C   UNL     1      23.079   0.274  53.513  0.00  0.00    +0.000 A 
ATOM      3  C   UNL     1      24.298  -0.355  53.477  0.00  0.00    +0.000 A 
ATOM      4  C   UNL     1      25.151  -0.009  52.463  0.00  0.00    +0.000 A 
ATOM      5  O   UNL     1      26.297  -0.720  52.300  0.00  0.00    +0.000 OA
ATOM      6  C   UNL     1      27.342   0.011  52.775  0.00  0.00    +0.000 A 
ATOM      7  C   UNL     1      28.150  -0.657  53.688  0.00  0.00    +0.000 A 
ATOM      8  C   UNL     1      29.017   0.094  54.454  0.00  0.00    +0.000 A 
ATOM      9  C   UNL     1      29.106   1.476  54.232  0.00  0.00    +0.000 A 
ATOM     10 CL   UNL     1      30.139   2.385  55.271  0.00  0.00    +0.000 Cl
ATOM     11  C   UNL     1      28.328   2.132  53.252  0.00  0.00    +0.000 A 
ATOM     12  C   UNL     1      27.402   1.390  52.524  0.00  0.00    +0.000 A 
ATOM     13  C   UNL     1      26.259   1.975  51.691  0.00  0.00    +0.000 A 
ATOM     14  O   UNL     1      26.337   3.062  51.126  0.00  0.00    +0.000 OA
ATOM     15  C   UNL     1      24.966   1.188  51.794  0.00  0.00    +0.000 A 
ATOM     16  C   UNL     1      23.653   1.660  51.646  0.00  0.00    +0.000 A 
ENDROOT
BRANCH   1  20
ATOM     17  C   UNL     1      18.341   1.440  51.711  0.00  0.00    +0.000 A 
ATOM     18  C   UNL     1      18.917   0.183  51.968  0.00  0.00    +0.000 A 
ATOM     19  C   UNL     1      20.301   0.019  52.209  0.00  0.00    +0.000 A 
ATOM     20  C   UNL     1      21.161   1.114  52.221  0.00  0.00    +0.000 A 
ATOM     21  C   UNL     1      20.537   2.381  52.083  0.00  0.00    +0.000 A 
ATOM     22  C   UNL     1      19.187   2.546  51.794  0.00  0.00    +0.000 A 
BRANCH  17  27
ATOM     23  O   UNL     1      13.109   2.368  50.761  0.00  0.00    +0.000 OA
ATOM     24  C   UNL     1      14.293   2.128  50.884  0.00  0.00    +0.000 A 
ATOM     25  C   UNL     1      14.847   1.802  52.226  0.00  0.00    +0.000 A 
ATOM     26  N   UNL     1      16.094   1.553  52.430  0.00  0.00    +0.000 NA
ATOM     27  N   UNL     1      16.971   1.630  51.349  0.00  0.00    +0.000 N 
ATOM     28  C   UNL     1      16.546   1.891  50.038  0.00  0.00    +0.000 A 
ATOM     29  O   UNL     1      17.252   1.895  49.028  0.00  0.00    +0.000 OA
ATOM     30  N   UNL     1      15.213   2.139  49.879  0.00  0.00    +0.000 N 
ATOM     31  H   UNL     1      14.893   2.341  48.970  0.00  0.00    +0.000 HD
ENDBRANCH  17  27
ENDBRANCH   1  20
TORSDOF 2
ENDMDL
MODEL 7
REMARK VINA RESULT:    -9.100      7.447      9.109
REMARK INTER + INTRA:         -10.732
REMARK INTER:                 -10.222
REMARK INTRA:                  -0.510
REMARK UNBOUND:                -0.569
REMARK  Name = 
REMARK  2 active torsions:
REMARK  status: ('A' for Active; 'I' for Inactive)
REMARK    1  A    between atoms: N_5  and  C_6
REMARK    2  A    between atoms: C_9  and  C_10
REMARK                            x       y       z     vdW  Elec       q    Type
REMARK                         _______ _______ _______ _____ _____    ______ ____
ROOT
ATOM      1  C   UNL     1      25.149   4.998  50.169  0.00  0.00    +0.000 A 
ATOM      2  C   UNL     1      23.750   5.168  50.109  0.00  0.00    +0.000 A 
ATOM      3  C   UNL     1      22.920   4.099  49.888  0.00  0.00    +0.000 A 
ATOM      4  C   UNL     1      23.476   2.850  49.957  0.00  0.00    +0.000 A 
ATOM      5  O   UNL     1      22.727   1.778  49.589  0.00  0.00    +0.000 OA
ATOM      6  C   UNL     1      22.311   1.124  50.707  0.00  0.00    +0.000 A 
ATOM      7  C   UNL     1      20.942   0.892  50.768  0.00  0.00    +0.000 A 
ATOM      8  C   UNL     1      20.399   0.540  51.987  0.00  0.00    +0.000 A 
ATOM      9  C   UNL     1      21.249   0.356  53.087  0.00  0.00    +0.000 A 
ATOM     10 CL   UNL     1      20.518   0.001  54.607  0.00  0.00    +0.000 Cl
ATOM     11  C   UNL     1      22.648   0.528  52.994  0.00  0.00    +0.000 A 
ATOM     12  C   UNL     1      23.193   0.950  51.785  0.00  0.00    +0.000 A 
ATOM     13  C   UNL     1      24.605   1.510  51.598  0.00  0.00    +0.000 A 
ATOM     14  O   UNL     1      25.556   1.160  52.291  0.00  0.00    +0.000 OA
ATOM     15  C   UNL     1      24.676   2.672  50.625  0.00  0.00    +0.000 A 
ATOM     16  C   UNL     1      25.599   3.728  50.604  0.00  0.00    +0.000 A 
ENDROOT
BRANCH   1  20
ATOM     17  C   UNL     1      27.513   8.512  49.083  0.00  0.00    +0.000 A 
ATOM     18  C   UNL     1      27.662   7.302  48.382  0.00  0.00    +0.000 A 
ATOM     19  C   UNL     1      26.913   6.145  48.700  0.00  0.00    +0.000 A 
ATOM     20  C   UNL     1      25.969   6.162  49.724  0.00  0.00    +0.000 A 
ATOM     21  C   UNL     1      25.750   7.426  50.331  0.00  0.00    +0.000 A 
ATOM     22  C   UNL     1      26.519   8.553  50.061  0.00  0.00    +0.000 A 
BRANCH  17  27
ATOM     23  O   UNL     1      30.240  13.121  48.407  0.00  0.00    +0.000 OA
ATOM     24  C   UNL     1      29.709  12.037  48.541  0.00  0.00    +0.000 A 
ATOM     25  C   UNL     1      28.255  11.886  48.265  0.00  0.00    +0.000 A 
ATOM     26  N   UNL     1      27.626  10.771  48.403  0.00  0.00    +0.000 NA
ATOM     27  N   UNL     1      28.333   9.664  48.867  0.00  0.00    +0.000 N 
ATOM     28  C   UNL     1      29.712   9.690  49.120  0.00  0.00    +0.000 A 
ATOM     29  O   UNL     1      30.413   8.732  49.454  0.00  0.00    +0.000 OA
ATOM     30  N   UNL     1      30.330  10.896  48.949  0.00  0.00    +0.000 N 
ATOM     31  H   UNL     1      31.296  10.943  49.136  0.00  0.00    +0.000 HD
ENDBRANCH  17  27
ENDBRANCH   1  20
TORSDOF 2
ENDMDL
MODEL 8
REMARK VINA RESULT:    -8.190      6.053     10.690
REMARK INTER + INTRA:          -9.716
REMARK INTER:                  -9.114
REMARK INTRA:                  -0.602
REMARK UNBOUND:                -0.569
REMARK  Name = 
REMARK  2 active torsions:
REMARK  status: ('A' for Active; 'I' for Inactive)
REMARK    1  A    between atoms: N_5  and  C_6
REMARK    2  A    between atoms: C_9  and  C_10
REMARK                            x       y       z     vdW  Elec       q    Type
REMARK                         _______ _______ _______ _____ _____    ______ ____
ROOT
ATOM      1  C   UNL     1      23.112   2.419  50.962  0.00  0.00    +0.000 A 
ATOM      2  C   UNL     1      24.405   2.833  50.578  0.00  0.00    +0.000 A 
ATOM      3  C   UNL     1      25.425   2.893  51.492  0.00  0.00    +0.000 A 
ATOM      4  C   UNL     1      25.202   2.323  52.717  0.00  0.00    +0.000 A 
ATOM      5  O   UNL     1      26.124   2.500  53.699  0.00  0.00    +0.000 OA
ATOM      6  C   UNL     1      26.847   1.356  53.840  0.00  0.00    +0.000 A 
ATOM      7  C   UNL     1      28.224   1.529  53.789  0.00  0.00    +0.000 A 
ATOM      8  C   UNL     1      29.010   0.411  53.595  0.00  0.00    +0.000 A 
ATOM      9  C   UNL     1      28.402  -0.851  53.534  0.00  0.00    +0.000 A 
ATOM     10 CL   UNL     1      29.413  -2.207  53.203  0.00  0.00    +0.000 Cl
ATOM     11  C   UNL     1      27.004  -1.020  53.655  0.00  0.00    +0.000 A 
ATOM     12  C   UNL     1      26.201   0.110  53.783  0.00  0.00    +0.000 A 
ATOM     13  C   UNL     1      24.684   0.145  53.582  0.00  0.00    +0.000 A 
ATOM     14  O   UNL     1      23.959  -0.813  53.833  0.00  0.00    +0.000 OA
ATOM     15  C   UNL     1      24.193   1.387  52.862  0.00  0.00    +0.000 A 
ATOM     16  C   UNL     1      23.050   1.527  52.061  0.00  0.00    +0.000 A 
ENDROOT
BRANCH   1  20
ATOM     17  C   UNL     1      19.697   4.217  48.910  0.00  0.00    +0.000 A 
ATOM     18  C   UNL     1      20.890   3.948  48.216  0.00  0.00    +0.000 A 
ATOM     19  C   UNL     1      22.015   3.363  48.843  0.00  0.00    +0.000 A 
ATOM     20  C   UNL     1      21.981   3.007  50.190  0.00  0.00    +0.000 A 
ATOM     21  C   UNL     1      20.727   3.175  50.833  0.00  0.00    +0.000 A 
ATOM     22  C   UNL     1      19.635   3.797  50.239  0.00  0.00    +0.000 A 
BRANCH  17  27
ATOM     23  O   UNL     1      15.218   6.520  46.967  0.00  0.00    +0.000 OA
ATOM     24  C   UNL     1      16.275   6.076  47.369  0.00  0.00    +0.000 A 
ATOM     25  C   UNL     1      16.445   4.609  47.540  0.00  0.00    +0.000 A 
ATOM     26  N   UNL     1      17.532   4.074  47.977  0.00  0.00    +0.000 NA
ATOM     27  N   UNL     1      18.584   4.912  48.341  0.00  0.00    +0.000 N 
ATOM     28  C   UNL     1      18.540   6.305  48.183  0.00  0.00    +0.000 A 
ATOM     29  O   UNL     1      19.458   7.096  48.408  0.00  0.00    +0.000 OA
ATOM     30  N   UNL     1      17.366   6.817  47.708  0.00  0.00    +0.000 N 
ATOM     31  H   UNL     1      17.306   7.794  47.604  0.00  0.00    +0.000 HD
ENDBRANCH  17  27
ENDBRANCH   1  20
TORSDOF 2
ENDMDL
MODEL 9
REMARK VINA RESULT:    -8.057      3.909      4.583
REMARK INTER + INTRA:          -9.567
REMARK INTER:                  -8.960
REMARK INTRA:                  -0.607
REMARK UNBOUND:                -0.569
REMARK  Name = 
REMARK  2 active torsions:
REMARK  status: ('A' for Active; 'I' for Inactive)
REMARK    1  A    between atoms: N_5  and  C_6
REMARK    2  A    between atoms: C_9  and  C_10
REMARK                            x       y       z     vdW  Elec       q    Type
REMARK                         _______ _______ _______ _____ _____    ______ ____
ROOT
ATOM      1  C   UNL     1      20.219   1.799  50.731  0.00  0.00    +0.000 A 
ATOM      2  C   UNL     1      19.119   2.450  50.134  0.00  0.00    +0.000 A 
ATOM      3  C   UNL     1      18.004   1.746  49.758  0.00  0.00    +0.000 A 
ATOM      4  C   UNL     1      17.907   0.450  50.188  0.00  0.00    +0.000 A 
ATOM      5  O   UNL     1      16.901  -0.326  49.708  0.00  0.00    +0.000 OA
ATOM      6  C   UNL     1      15.941  -0.449  50.664  0.00  0.00    +0.000 A 
ATOM      7  C   UNL     1      14.656  -0.133  50.241  0.00  0.00    +0.000 A 
ATOM      8  C   UNL     1      13.693   0.087  51.204  0.00  0.00    +0.000 A 
ATOM      9  C   UNL     1      14.024  -0.091  52.555  0.00  0.00    +0.000 A 
ATOM     10 CL   UNL     1      12.814   0.279  53.727  0.00  0.00    +0.000 Cl
ATOM     11  C   UNL     1      15.317  -0.480  52.969  0.00  0.00    +0.000 A 
ATOM     12  C   UNL     1      16.311  -0.635  52.005  0.00  0.00    +0.000 A 
ATOM     13  C   UNL     1      17.813  -0.709  52.288  0.00  0.00    +0.000 A 
ATOM     14  O   UNL     1      18.272  -1.183  53.323  0.00  0.00    +0.000 OA
ATOM     15  C   UNL     1      18.661   0.031  51.271  0.00  0.00    +0.000 A 
ATOM     16  C   UNL     1      19.919   0.623  51.461  0.00  0.00    +0.000 A 
ENDROOT
BRANCH   1  20
ATOM     17  C   UNL     1      24.075   3.615  49.757  0.00  0.00    +0.000 A 
ATOM     18  C   UNL     1      23.617   3.573  51.086  0.00  0.00    +0.000 A 
ATOM     19  C   UNL     1      22.377   2.991  51.442  0.00  0.00    +0.000 A 
ATOM     20  C   UNL     1      21.556   2.409  50.478  0.00  0.00    +0.000 A 
ATOM     21  C   UNL     1      22.097   2.354  49.168  0.00  0.00    +0.000 A 
ATOM     22  C   UNL     1      23.289   2.970  48.801  0.00  0.00    +0.000 A 
BRANCH  17  27
ATOM     23  O   UNL     1      28.348   6.587  48.327  0.00  0.00    +0.000 OA
ATOM     24  C   UNL     1      27.440   5.840  48.631  0.00  0.00    +0.000 A 
ATOM     25  C   UNL     1      26.029   6.283  48.468  0.00  0.00    +0.000 A 
ATOM     26  N   UNL     1      25.020   5.549  48.787  0.00  0.00    +0.000 NA
ATOM     27  N   UNL     1      25.263   4.296  49.345  0.00  0.00    +0.000 N 
ATOM     28  C   UNL     1      26.553   3.768  49.507  0.00  0.00    +0.000 A 
ATOM     29  O   UNL     1      26.836   2.642  49.918  0.00  0.00    +0.000 OA
ATOM     30  N   UNL     1      27.584   4.587  49.145  0.00  0.00    +0.000 N 
ATOM     31  H   UNL     1      28.500   4.245  49.264  0.00  0.00    +0.000 HD
ENDBRANCH  17  27
ENDBRANCH   1  20
TORSDOF 2
ENDMDL
