MODEL 1
REMARK VINA RESULT:    -8.272      0.000      0.000
REMARK INTER + INTRA:         -12.515
REMARK INTER:                 -11.174
REMARK INTRA:                  -1.341
REMARK UNBOUND:                -1.341
REMARK  Name = 
REMARK  13 active torsions:
REMARK  status: ('A' for Active; 'I' for Inactive)
REMARK    1  A    between atoms: C_1  and  C_2
REMARK    2  A    between atoms: C_2  and  C_3
REMARK    3  A    between atoms: C_3  and  C_4
REMARK    4  A    between atoms: C_10  and  C_11
REMARK    5  A    between atoms: C_11  and  C_13
REMARK    6  A    between atoms: C_13  and  C_14
REMARK    7  A    between atoms: C_13  and  C_15
REMARK    8  A    between atoms: C_13  and  C_16
REMARK    9  A    between atoms: C_16  and  C_17
REMARK   10  A    between atoms: C_16  and  O_18
REMARK   11  A    between atoms: C_19  and  O_20
REMARK   12  A    between atoms: C_25  and  C_26
REMARK   13  A    between atoms: C_25  and  C_27
REMARK                            x       y       z     vdW  Elec       q    Type
REMARK                         _______ _______ _______ _____ _____    ______ ____
ROOT
ATOM      1  C   UNL     1      21.640   1.483  52.521  0.00  0.00    +0.000 A 
ATOM      2  C   UNL     1      21.884   0.737  53.612  0.00  0.00    +0.000 A 
ATOM      3  C   UNL     1      22.821  -0.374  53.565  0.00  0.00    +0.000 A 
ATOM      4  O   UNL     1      22.573  -1.472  54.044  0.00  0.00    +0.000 OA
ATOM      5  O   UNL     1      23.999  -0.051  52.961  0.00  0.00    +0.000 OA
ATOM      6  C   UNL     1      24.058   1.181  52.277  0.00  0.00    +0.000 A 
ATOM      7  C   UNL     1      25.323   1.787  52.218  0.00  0.00    +0.000 A 
ATOM      8  C   UNL     1      25.487   2.771  51.258  0.00  0.00    +0.000 A 
ATOM      9  C   UNL     1      24.402   3.124  50.402  0.00  0.00    +0.000 A 
ATOM     10  C   UNL     1      23.090   2.656  50.655  0.00  0.00    +0.000 A 
ATOM     11  C   UNL     1      22.885   1.732  51.697  0.00  0.00    +0.000 A 
ATOM     12  O   UNL     1      22.024   3.103  49.909  0.00  0.00    +0.000 OA
ATOM     13  C   UNL     1      22.290   3.696  48.597  0.00  0.00    +0.000 C 
ATOM     14  C   UNL     1      22.058   2.618  47.528  0.00  0.00    +0.000 C 
ATOM     15  C   UNL     1      21.315   4.849  48.390  0.00  0.00    +0.000 C 
ATOM     16  C   UNL     1      23.678   4.255  48.427  0.00  0.00    +0.000 C 
ATOM     17  C   UNL     1      24.661   4.026  49.291  0.00  0.00    +0.000 C 
ENDROOT
BRANCH   7  18
ATOM     18  C   UNL     1      26.141   1.551  53.448  0.00  0.00    +0.000 C 
ATOM     19  O   UNL     1      25.987   2.395  54.345  0.00  0.00    +0.000 OA
BRANCH  18  20
ATOM     20  C   UNL     1      27.190   0.427  53.661  0.00  0.00    +0.000 C 
ATOM     21  C   UNL     1      26.947  -0.377  54.956  0.00  0.00    +0.000 C 
ATOM     22  C   UNL     1      27.185  -0.488  52.400  0.00  0.00    +0.000 C 
BRANCH  20  23
ATOM     23  C   UNL     1      28.656   1.049  53.764  0.00  0.00    +0.000 C 
ATOM     24  C   UNL     1      29.847   0.121  53.556  0.00  0.00    +0.000 C 
BRANCH  23  25
ATOM     25  O   UNL     1      28.768   2.181  52.914  0.00  0.00    +0.000 OA
ATOM     26  H   UNL     1      28.114   2.848  53.176  0.00  0.00    +0.000 HD
ENDBRANCH  23  25
ENDBRANCH  20  23
ENDBRANCH  18  20
ENDBRANCH   7  18
BRANCH   8  27
ATOM     27  O   UNL     1      26.636   3.487  51.084  0.00  0.00    +0.000 OA
ATOM     28  H   UNL     1      26.702   4.356  51.427  0.00  0.00    +0.000 HD
ENDBRANCH   8  27
BRANCH   1  29
ATOM     29  C   UNL     1      20.428   2.368  52.546  0.00  0.00    +0.000 C 
BRANCH  29  31
ATOM     30  C   UNL     1      19.520   0.823  50.707  0.00  0.00    +0.000 C 
ATOM     31  C   UNL     1      19.211   1.600  51.986  0.00  0.00    +0.000 C 
ENDBRANCH  29  31
ENDBRANCH   1  29
TORSDOF 7
ENDMDL
MODEL 2
REMARK VINA RESULT:    -8.150      1.297      4.193
REMARK INTER + INTRA:         -12.350
REMARK INTER:                 -10.920
REMARK INTRA:                  -1.430
REMARK UNBOUND:                -1.341
REMARK  Name = 
REMARK  13 active torsions:
REMARK  status: ('A' for Active; 'I' for Inactive)
REMARK    1  A    between atoms: C_1  and  C_2
REMARK    2  A    between atoms: C_2  and  C_3
REMARK    3  A    between atoms: C_3  and  C_4
REMARK    4  A    between atoms: C_10  and  C_11
REMARK    5  A    between atoms: C_11  and  C_13
REMARK    6  A    between atoms: C_13  and  C_14
REMARK    7  A    between atoms: C_13  and  C_15
REMARK    8  A    between atoms: C_13  and  C_16
REMARK    9  A    between atoms: C_16  and  C_17
REMARK   10  A    between atoms: C_16  and  O_18
REMARK   11  A    between atoms: C_19  and  O_20
REMARK   12  A    between atoms: C_25  and  C_26
REMARK   13  A    between atoms: C_25  and  C_27
REMARK                            x       y       z     vdW  Elec       q    Type
REMARK                         _______ _______ _______ _____ _____    ______ ____
ROOT
ATOM      1  C   UNL     1      23.475   2.768  49.390  0.00  0.00    +0.000 A 
ATOM      2  C   UNL     1      24.745   3.165  49.197  0.00  0.00    +0.000 A 
ATOM      3  C   UNL     1      25.509   3.779  50.272  0.00  0.00    +0.000 A 
ATOM      4  O   UNL     1      26.179   4.790  50.116  0.00  0.00    +0.000 OA
ATOM      5  O   UNL     1      25.418   3.094  51.446  0.00  0.00    +0.000 OA
ATOM      6  C   UNL     1      24.449   2.073  51.526  0.00  0.00    +0.000 A 
ATOM      7  C   UNL     1      24.749   1.014  52.399  0.00  0.00    +0.000 A 
ATOM      8  C   UNL     1      23.685   0.213  52.778  0.00  0.00    +0.000 A 
ATOM      9  C   UNL     1      22.374   0.482  52.283  0.00  0.00    +0.000 A 
ATOM     10  C   UNL     1      22.166   1.407  51.232  0.00  0.00    +0.000 A 
ATOM     11  C   UNL     1      23.259   2.156  50.758  0.00  0.00    +0.000 A 
ATOM     12  O   UNL     1      20.922   1.566  50.666  0.00  0.00    +0.000 OA
ATOM     13  C   UNL     1      19.749   1.129  51.426  0.00  0.00    +0.000 C 
ATOM     14  C   UNL     1      19.140   2.358  52.116  0.00  0.00    +0.000 C 
ATOM     15  C   UNL     1      18.744   0.533  50.447  0.00  0.00    +0.000 C 
ATOM     16  C   UNL     1      20.028   0.078  52.468  0.00  0.00    +0.000 C 
ATOM     17  C   UNL     1      21.256  -0.260  52.844  0.00  0.00    +0.000 C 
ENDROOT
BRANCH   7  18
ATOM     18  C   UNL     1      26.209   0.693  52.446  0.00  0.00    +0.000 C 
ATOM     19  O   UNL     1      26.682   0.260  51.384  0.00  0.00    +0.000 OA
BRANCH  18  20
ATOM     20  C   UNL     1      27.134   0.774  53.690  0.00  0.00    +0.000 C 
ATOM     21  C   UNL     1      26.352   0.729  55.019  0.00  0.00    +0.000 C 
ATOM     22  C   UNL     1      28.179  -0.377  53.593  0.00  0.00    +0.000 C 
BRANCH  20  23
ATOM     23  C   UNL     1      27.961   2.139  53.678  0.00  0.00    +0.000 C 
ATOM     24  C   UNL     1      29.367   2.133  54.267  0.00  0.00    +0.000 C 
BRANCH  23  25
ATOM     25  O   UNL     1      27.986   2.685  52.367  0.00  0.00    +0.000 OA
ATOM     26  H   UNL     1      28.579   2.158  51.809  0.00  0.00    +0.000 HD
ENDBRANCH  23  25
ENDBRANCH  20  23
ENDBRANCH  18  20
ENDBRANCH   7  18
BRANCH   8  27
ATOM     27  O   UNL     1      23.799  -0.878  53.590  0.00  0.00    +0.000 OA
ATOM     28  H   UNL     1      24.630  -1.297  53.696  0.00  0.00    +0.000 HD
ENDBRANCH   8  27
BRANCH   1  29
ATOM     29  C   UNL     1      22.650   2.476  48.171  0.00  0.00    +0.000 C 
BRANCH  29  31
ATOM     30  C   UNL     1      21.173   4.520  48.643  0.00  0.00    +0.000 C 
ATOM     31  C   UNL     1      22.043   3.786  47.625  0.00  0.00    +0.000 C 
ENDBRANCH  29  31
ENDBRANCH   1  29
TORSDOF 7
ENDMDL
MODEL 3
REMARK VINA RESULT:    -8.004      1.825      7.186
REMARK INTER + INTRA:         -12.152
REMARK INTER:                 -10.601
REMARK INTRA:                  -1.552
REMARK UNBOUND:                -1.341
REMARK  Name = 
REMARK  13 active torsions:
REMARK  status: ('A' for Active; 'I' for Inactive)
REMARK    1  A    between atoms: C_1  and  C_2
REMARK    2  A    between atoms: C_2  and  C_3
REMARK    3  A    between atoms: C_3  and  C_4
REMARK    4  A    between atoms: C_10  and  C_11
REMARK    5  A    between atoms: C_11  and  C_13
REMARK    6  A    between atoms: C_13  and  C_14
REMARK    7  A    between atoms: C_13  and  C_15
REMARK    8  A    between atoms: C_13  and  C_16
REMARK    9  A    between atoms: C_16  and  C_17
REMARK   10  A    between atoms: C_16  and  O_18
REMARK   11  A    between atoms: C_19  and  O_20
REMARK   12  A    between atoms: C_25  and  C_26
REMARK   13  A    between atoms: C_25  and  C_27
REMARK                            x       y       z     vdW  Elec       q    Type
REMARK                         _______ _______ _______ _____ _____    ______ ____
ROOT
ATOM      1  C   UNL     1      23.975   2.673  50.254  0.00  0.00    +0.000 A 
ATOM      2  C   UNL     1      23.197   3.173  49.279  0.00  0.00    +0.000 A 
ATOM      3  C   UNL     1      22.442   2.294  48.399  0.00  0.00    +0.000 A 
ATOM      4  O   UNL     1      22.410   2.440  47.185  0.00  0.00    +0.000 OA
ATOM      5  O   UNL     1      21.763   1.324  49.072  0.00  0.00    +0.000 OA
ATOM      6  C   UNL     1      22.062   1.155  50.440  0.00  0.00    +0.000 A 
ATOM      7  C   UNL     1      21.014   0.667  51.238  0.00  0.00    +0.000 A 
ATOM      8  C   UNL     1      21.375   0.145  52.468  0.00  0.00    +0.000 A 
ATOM      9  C   UNL     1      22.744   0.127  52.866  0.00  0.00    +0.000 A 
ATOM     10  C   UNL     1      23.726   0.838  52.134  0.00  0.00    +0.000 A 
ATOM     11  C   UNL     1      23.356   1.468  50.931  0.00  0.00    +0.000 A 
ATOM     12  O   UNL     1      25.020   0.931  52.592  0.00  0.00    +0.000 OA
ATOM     13  C   UNL     1      25.486  -0.055  53.571  0.00  0.00    +0.000 C 
ATOM     14  C   UNL     1      26.264  -1.144  52.820  0.00  0.00    +0.000 C 
ATOM     15  C   UNL     1      26.407   0.654  54.557  0.00  0.00    +0.000 C 
ATOM     16  C   UNL     1      24.394  -0.708  54.377  0.00  0.00    +0.000 C 
ATOM     17  C   UNL     1      23.105  -0.592  54.077  0.00  0.00    +0.000 C 
ENDROOT
BRANCH   7  18
ATOM     18  C   UNL     1      19.670   1.156  50.800  0.00  0.00    +0.000 C 
ATOM     19  O   UNL     1      18.973   0.311  50.218  0.00  0.00    +0.000 OA
BRANCH  18  20
ATOM     20  C   UNL     1      19.123   2.603  50.932  0.00  0.00    +0.000 C 
ATOM     21  C   UNL     1      17.749   2.659  51.632  0.00  0.00    +0.000 C 
ATOM     22  C   UNL     1      20.190   3.459  51.677  0.00  0.00    +0.000 C 
BRANCH  20  23
ATOM     23  C   UNL     1      18.942   3.261  49.489  0.00  0.00    +0.000 C 
ATOM     24  C   UNL     1      19.738   4.520  49.168  0.00  0.00    +0.000 C 
BRANCH  23  25
ATOM     25  O   UNL     1      19.145   2.286  48.477  0.00  0.00    +0.000 OA
ATOM     26  H   UNL     1      19.387   1.441  48.886  0.00  0.00    +0.000 HD
ENDBRANCH  23  25
ENDBRANCH  20  23
ENDBRANCH  18  20
ENDBRANCH   7  18
BRANCH   8  27
ATOM     27  O   UNL     1      20.486  -0.340  53.384  0.00  0.00    +0.000 OA
ATOM     28  H   UNL     1      20.473   0.009  54.254  0.00  0.00    +0.000 HD
ENDBRANCH   8  27
BRANCH   1  29
ATOM     29  C   UNL     1      24.977   3.597  50.881  0.00  0.00    +0.000 C 
BRANCH  29  31
ATOM     30  C   UNL     1      26.846   4.196  49.228  0.00  0.00    +0.000 C 
ATOM     31  C   UNL     1      26.390   3.269  50.353  0.00  0.00    +0.000 C 
ENDBRANCH  29  31
ENDBRANCH   1  29
TORSDOF 7
ENDMDL
MODEL 4
REMARK VINA RESULT:    -7.841      1.956      5.791
REMARK INTER + INTRA:         -11.932
REMARK INTER:                 -10.835
REMARK INTRA:                  -1.097
REMARK UNBOUND:                -1.341
REMARK  Name = 
REMARK  13 active torsions:
REMARK  status: ('A' for Active; 'I' for Inactive)
REMARK    1  A    between atoms: C_1  and  C_2
REMARK    2  A    between atoms: C_2  and  C_3
REMARK    3  A    between atoms: C_3  and  C_4
REMARK    4  A    between atoms: C_10  and  C_11
REMARK    5  A    between atoms: C_11  and  C_13
REMARK    6  A    between atoms: C_13  and  C_14
REMARK    7  A    between atoms: C_13  and  C_15
REMARK    8  A    between atoms: C_13  and  C_16
REMARK    9  A    between atoms: C_16  and  C_17
REMARK   10  A    between atoms: C_16  and  O_18
REMARK   11  A    between atoms: C_19  and  O_20
REMARK   12  A    between atoms: C_25  and  C_26
REMARK   13  A    between atoms: C_25  and  C_27
REMARK                            x       y       z     vdW  Elec       q    Type
REMARK                         _______ _______ _______ _____ _____    ______ ____
ROOT
ATOM      1  C   UNL     1      22.165   1.139  52.196  0.00  0.00    +0.000 A 
ATOM      2  C   UNL     1      21.137   1.882  51.754  0.00  0.00    +0.000 A 
ATOM      3  C   UNL     1      21.047   3.299  52.072  0.00  0.00    +0.000 A 
ATOM      4  O   UNL     1      20.014   3.827  52.462  0.00  0.00    +0.000 OA
ATOM      5  O   UNL     1      22.216   3.966  51.863  0.00  0.00    +0.000 OA
ATOM      6  C   UNL     1      23.368   3.191  51.614  0.00  0.00    +0.000 A 
ATOM      7  C   UNL     1      24.352   3.798  50.817  0.00  0.00    +0.000 A 
ATOM      8  C   UNL     1      25.615   3.234  50.869  0.00  0.00    +0.000 A 
ATOM      9  C   UNL     1      25.859   2.098  51.696  0.00  0.00    +0.000 A 
ATOM     10  C   UNL     1      24.790   1.386  52.293  0.00  0.00    +0.000 A 
ATOM     11  C   UNL     1      23.482   1.886  52.162  0.00  0.00    +0.000 A 
ATOM     12  O   UNL     1      25.016   0.215  52.979  0.00  0.00    +0.000 OA
ATOM     13  C   UNL     1      26.369  -0.054  53.472  0.00  0.00    +0.000 C 
ATOM     14  C   UNL     1      26.427   0.344  54.954  0.00  0.00    +0.000 C 
ATOM     15  C   UNL     1      26.638  -1.548  53.326  0.00  0.00    +0.000 C 
ATOM     16  C   UNL     1      27.465   0.667  52.734  0.00  0.00    +0.000 C 
ATOM     17  C   UNL     1      27.231   1.648  51.869  0.00  0.00    +0.000 C 
ENDROOT
BRANCH   7  18
ATOM     18  C   UNL     1      23.779   4.684  49.757  0.00  0.00    +0.000 C 
ATOM     19  O   UNL     1      23.177   4.089  48.850  0.00  0.00    +0.000 OA
BRANCH  18  20
ATOM     20  C   UNL     1      23.936   6.225  49.654  0.00  0.00    +0.000 C 
ATOM     21  C   UNL     1      24.363   6.687  48.245  0.00  0.00    +0.000 C 
ATOM     22  C   UNL     1      22.596   6.881  50.099  0.00  0.00    +0.000 C 
BRANCH  20  23
ATOM     23  C   UNL     1      25.052   6.738  50.673  0.00  0.00    +0.000 C 
ATOM     24  C   UNL     1      26.019   7.816  50.199  0.00  0.00    +0.000 C 
BRANCH  23  25
ATOM     25  O   UNL     1      24.452   7.129  51.899  0.00  0.00    +0.000 OA
ATOM     26  H   UNL     1      23.949   6.385  52.265  0.00  0.00    +0.000 HD
ENDBRANCH  23  25
ENDBRANCH  20  23
ENDBRANCH  18  20
ENDBRANCH   7  18
BRANCH   8  27
ATOM     27  O   UNL     1      26.680   3.671  50.135  0.00  0.00    +0.000 OA
ATOM     28  H   UNL     1      27.269   3.053  49.751  0.00  0.00    +0.000 HD
ENDBRANCH   8  27
BRANCH   1  29
ATOM     29  C   UNL     1      22.017  -0.353  52.132  0.00  0.00    +0.000 C 
BRANCH  29  31
ATOM     30  C   UNL     1      22.277  -1.070  54.583  0.00  0.00    +0.000 C 
ATOM     31  C   UNL     1      21.319  -0.863  53.411  0.00  0.00    +0.000 C 
ENDBRANCH  29  31
ENDBRANCH   1  29
TORSDOF 7
ENDMDL
MODEL 5
REMARK VINA RESULT:    -7.563      1.922      6.682
REMARK INTER + INTRA:         -11.558
REMARK INTER:                  -9.863
REMARK INTRA:                  -1.695
REMARK UNBOUND:                -1.341
REMARK  Name = 
REMARK  13 active torsions:
REMARK  status: ('A' for Active; 'I' for Inactive)
REMARK    1  A    between atoms: C_1  and  C_2
REMARK    2  A    between atoms: C_2  and  C_3
REMARK    3  A    between atoms: C_3  and  C_4
REMARK    4  A    between atoms: C_10  and  C_11
REMARK    5  A    between atoms: C_11  and  C_13
REMARK    6  A    between atoms: C_13  and  C_14
REMARK    7  A    between atoms: C_13  and  C_15
REMARK    8  A    between atoms: C_13  and  C_16
REMARK    9  A    between atoms: C_16  and  C_17
REMARK   10  A    between atoms: C_16  and  O_18
REMARK   11  A    between atoms: C_19  and  O_20
REMARK   12  A    between atoms: C_25  and  C_26
REMARK   13  A    between atoms: C_25  and  C_27
REMARK                            x       y       z     vdW  Elec       q    Type
REMARK                         _______ _______ _______ _____ _____    ______ ____
ROOT
ATOM      1  C   UNL     1      25.832   1.758  52.176  0.00  0.00    +0.000 A 
ATOM      2  C   UNL     1      26.490   2.676  51.448  0.00  0.00    +0.000 A 
ATOM      3  C   UNL     1      26.048   3.026  50.108  0.00  0.00    +0.000 A 
ATOM      4  O   UNL     1      26.815   3.120  49.159  0.00  0.00    +0.000 OA
ATOM      5  O   UNL     1      24.708   3.262  50.035  0.00  0.00    +0.000 OA
ATOM      6  C   UNL     1      23.928   2.913  51.157  0.00  0.00    +0.000 A 
ATOM      7  C   UNL     1      22.766   3.677  51.355  0.00  0.00    +0.000 A 
ATOM      8  C   UNL     1      21.811   3.132  52.196  0.00  0.00    +0.000 A 
ATOM      9  C   UNL     1      22.037   1.865  52.811  0.00  0.00    +0.000 A 
ATOM     10  C   UNL     1      23.311   1.249  52.768  0.00  0.00    +0.000 A 
ATOM     11  C   UNL     1      24.330   1.845  52.001  0.00  0.00    +0.000 A 
ATOM     12  O   UNL     1      23.563   0.095  53.473  0.00  0.00    +0.000 OA
ATOM     13  C   UNL     1      22.426  -0.729  53.891  0.00  0.00    +0.000 C 
ATOM     14  C   UNL     1      22.263  -1.871  52.878  0.00  0.00    +0.000 C 
ATOM     15  C   UNL     1      22.736  -1.300  55.270  0.00  0.00    +0.000 C 
ATOM     16  C   UNL     1      21.119   0.010  54.003  0.00  0.00    +0.000 C 
ATOM     17  C   UNL     1      20.942   1.242  53.536  0.00  0.00    +0.000 C 
ENDROOT
BRANCH   7  18
ATOM     18  C   UNL     1      22.933   5.107  50.950  0.00  0.00    +0.000 C 
ATOM     19  O   UNL     1      23.703   5.765  51.668  0.00  0.00    +0.000 OA
BRANCH  18  20
ATOM     20  C   UNL     1      22.190   5.836  49.799  0.00  0.00    +0.000 C 
ATOM     21  C   UNL     1      21.378   4.872  48.908  0.00  0.00    +0.000 C 
ATOM     22  C   UNL     1      21.292   6.943  50.426  0.00  0.00    +0.000 C 
BRANCH  20  23
ATOM     23  C   UNL     1      23.234   6.583  48.850  0.00  0.00    +0.000 C 
ATOM     24  C   UNL     1      23.442   8.080  49.048  0.00  0.00    +0.000 C 
BRANCH  23  25
ATOM     25  O   UNL     1      24.485   5.912  48.874  0.00  0.00    +0.000 OA
ATOM     26  H   UNL     1      25.156   6.462  48.440  0.00  0.00    +0.000 HD
ENDBRANCH  23  25
ENDBRANCH  20  23
ENDBRANCH  18  20
ENDBRANCH   7  18
BRANCH   8  27
ATOM     27  O   UNL     1      20.641   3.751  52.527  0.00  0.00    +0.000 OA
ATOM     28  H   UNL     1      20.620   4.364  53.235  0.00  0.00    +0.000 HD
ENDBRANCH   8  27
BRANCH   1  29
ATOM     29  C   UNL     1      26.531   1.199  53.381  0.00  0.00    +0.000 C 
BRANCH  29  31
ATOM     30  C   UNL     1      26.684  -1.230  52.568  0.00  0.00    +0.000 C 
ATOM     31  C   UNL     1      27.450   0.034  52.957  0.00  0.00    +0.000 C 
ENDBRANCH  29  31
ENDBRANCH   1  29
TORSDOF 7
ENDMDL
MODEL 6
REMARK VINA RESULT:    -7.472      2.280      5.437
REMARK INTER + INTRA:         -11.433
REMARK INTER:                  -9.812
REMARK INTRA:                  -1.622
REMARK UNBOUND:                -1.341
REMARK  Name = 
REMARK  13 active torsions:
REMARK  status: ('A' for Active; 'I' for Inactive)
REMARK    1  A    between atoms: C_1  and  C_2
REMARK    2  A    between atoms: C_2  and  C_3
REMARK    3  A    between atoms: C_3  and  C_4
REMARK    4  A    between atoms: C_10  and  C_11
REMARK    5  A    between atoms: C_11  and  C_13
REMARK    6  A    between atoms: C_13  and  C_14
REMARK    7  A    between atoms: C_13  and  C_15
REMARK    8  A    between atoms: C_13  and  C_16
REMARK    9  A    between atoms: C_16  and  C_17
REMARK   10  A    between atoms: C_16  and  O_18
REMARK   11  A    between atoms: C_19  and  O_20
REMARK   12  A    between atoms: C_25  and  C_26
REMARK   13  A    between atoms: C_25  and  C_27
REMARK                            x       y       z     vdW  Elec       q    Type
REMARK                         _______ _______ _______ _____ _____    ______ ____
ROOT
ATOM      1  C   UNL     1      20.500   2.243  50.611  0.00  0.00    +0.000 A 
ATOM      2  C   UNL     1      20.306   3.349  49.872  0.00  0.00    +0.000 A 
ATOM      3  C   UNL     1      20.426   4.673  50.461  0.00  0.00    +0.000 A 
ATOM      4  O   UNL     1      19.606   5.561  50.271  0.00  0.00    +0.000 OA
ATOM      5  O   UNL     1      21.552   4.819  51.215  0.00  0.00    +0.000 OA
ATOM      6  C   UNL     1      22.288   3.654  51.511  0.00  0.00    +0.000 A 
ATOM      7  C   UNL     1      23.667   3.835  51.701  0.00  0.00    +0.000 A 
ATOM      8  C   UNL     1      24.336   2.810  52.348  0.00  0.00    +0.000 A 
ATOM      9  C   UNL     1      23.626   1.650  52.778  0.00  0.00    +0.000 A 
ATOM     10  C   UNL     1      22.294   1.412  52.358  0.00  0.00    +0.000 A 
ATOM     11  C   UNL     1      21.631   2.399  51.607  0.00  0.00    +0.000 A 
ATOM     12  O   UNL     1      21.657   0.231  52.662  0.00  0.00    +0.000 OA
ATOM     13  C   UNL     1      22.170  -0.572  53.774  0.00  0.00    +0.000 C 
ATOM     14  C   UNL     1      21.321  -0.270  55.017  0.00  0.00    +0.000 C 
ATOM     15  C   UNL     1      22.035  -2.043  53.399  0.00  0.00    +0.000 C 
ATOM     16  C   UNL     1      23.619  -0.333  54.109  0.00  0.00    +0.000 C 
ATOM     17  C   UNL     1      24.319   0.682  53.613  0.00  0.00    +0.000 C 
ENDROOT
BRANCH   7  18
ATOM     18  C   UNL     1      24.241   4.904  50.827  0.00  0.00    +0.000 C 
ATOM     19  O   UNL     1      24.375   6.009  51.376  0.00  0.00    +0.000 OA
BRANCH  18  20
ATOM     20  C   UNL     1      24.595   4.778  49.320  0.00  0.00    +0.000 C 
ATOM     21  C   UNL     1      24.081   3.464  48.695  0.00  0.00    +0.000 C 
ATOM     22  C   UNL     1      24.033   6.030  48.584  0.00  0.00    +0.000 C 
BRANCH  20  23
ATOM     23  C   UNL     1      26.178   4.806  49.118  0.00  0.00    +0.000 C 
ATOM     24  C   UNL     1      26.824   6.116  48.682  0.00  0.00    +0.000 C 
BRANCH  23  25
ATOM     25  O   UNL     1      26.828   4.306  50.277  0.00  0.00    +0.000 OA
ATOM     26  H   UNL     1      26.215   4.330  51.028  0.00  0.00    +0.000 HD
ENDBRANCH  23  25
ENDBRANCH  20  23
ENDBRANCH  18  20
ENDBRANCH   7  18
BRANCH   8  27
ATOM     27  O   UNL     1      25.680   2.802  52.585  0.00  0.00    +0.000 OA
ATOM     28  H   UNL     1      26.270   3.151  51.946  0.00  0.00    +0.000 HD
ENDBRANCH   8  27
BRANCH   1  29
ATOM     29  C   UNL     1      20.024   0.939  50.041  0.00  0.00    +0.000 C 
BRANCH  29  31
ATOM     30  C   UNL     1      18.343  -0.291  51.540  0.00  0.00    +0.000 C 
ATOM     31  C   UNL     1      18.542   0.718  50.411  0.00  0.00    +0.000 C 
ENDBRANCH  29  31
ENDBRANCH   1  29
TORSDOF 7
ENDMDL
MODEL 7
REMARK VINA RESULT:    -7.467      1.692      6.101
REMARK INTER + INTRA:         -11.427
REMARK INTER:                  -9.821
REMARK INTRA:                  -1.606
REMARK UNBOUND:                -1.341
REMARK  Name = 
REMARK  13 active torsions:
REMARK  status: ('A' for Active; 'I' for Inactive)
REMARK    1  A    between atoms: C_1  and  C_2
REMARK    2  A    between atoms: C_2  and  C_3
REMARK    3  A    between atoms: C_3  and  C_4
REMARK    4  A    between atoms: C_10  and  C_11
REMARK    5  A    between atoms: C_11  and  C_13
REMARK    6  A    between atoms: C_13  and  C_14
REMARK    7  A    between atoms: C_13  and  C_15
REMARK    8  A    between atoms: C_13  and  C_16
REMARK    9  A    between atoms: C_16  and  C_17
REMARK   10  A    between atoms: C_16  and  O_18
REMARK   11  A    between atoms: C_19  and  O_20
REMARK   12  A    between atoms: C_25  and  C_26
REMARK   13  A    between atoms: C_25  and  C_27
REMARK                            x       y       z     vdW  Elec       q    Type
REMARK                         _______ _______ _______ _____ _____    ______ ____
ROOT
ATOM      1  C   UNL     1      21.893   0.899  52.248  0.00  0.00    +0.000 A 
ATOM      2  C   UNL     1      20.743   1.480  51.866  0.00  0.00    +0.000 A 
ATOM      3  C   UNL     1      20.507   2.897  52.096  0.00  0.00    +0.000 A 
ATOM      4  O   UNL     1      19.458   3.328  52.555  0.00  0.00    +0.000 OA
ATOM      5  O   UNL     1      21.559   3.678  51.724  0.00  0.00    +0.000 OA
ATOM      6  C   UNL     1      22.769   3.026  51.410  0.00  0.00    +0.000 A 
ATOM      7  C   UNL     1      23.590   3.680  50.477  0.00  0.00    +0.000 A 
ATOM      8  C   UNL     1      24.914   3.274  50.436  0.00  0.00    +0.000 A 
ATOM      9  C   UNL     1      25.374   2.243  51.307  0.00  0.00    +0.000 A 
ATOM     10  C   UNL     1      24.463   1.460  52.057  0.00  0.00    +0.000 A 
ATOM     11  C   UNL     1      23.096   1.791  52.029  0.00  0.00    +0.000 A 
ATOM     12  O   UNL     1      24.898   0.381  52.792  0.00  0.00    +0.000 OA
ATOM     13  C   UNL     1      26.313   0.313  53.161  0.00  0.00    +0.000 C 
ATOM     14  C   UNL     1      26.461   0.830  54.598  0.00  0.00    +0.000 C 
ATOM     15  C   UNL     1      26.752  -1.145  53.088  0.00  0.00    +0.000 C 
ATOM     16  C   UNL     1      27.237   1.097  52.266  0.00  0.00    +0.000 C 
ATOM     17  C   UNL     1      26.802   1.973  51.367  0.00  0.00    +0.000 C 
ENDROOT
BRANCH   7  18
ATOM     18  C   UNL     1      22.814   4.406  49.425  0.00  0.00    +0.000 C 
ATOM     19  O   UNL     1      22.770   5.638  49.568  0.00  0.00    +0.000 OA
BRANCH  18  20
ATOM     20  C   UNL     1      22.017   3.768  48.255  0.00  0.00    +0.000 C 
ATOM     21  C   UNL     1      22.332   4.421  46.893  0.00  0.00    +0.000 C 
ATOM     22  C   UNL     1      22.308   2.238  48.248  0.00  0.00    +0.000 C 
BRANCH  20  23
ATOM     23  C   UNL     1      20.448   3.929  48.501  0.00  0.00    +0.000 C 
ATOM     24  C   UNL     1      19.602   2.665  48.594  0.00  0.00    +0.000 C 
BRANCH  23  25
ATOM     25  O   UNL     1      20.211   4.757  49.630  0.00  0.00    +0.000 OA
ATOM     26  H   UNL     1      19.796   5.585  49.342  0.00  0.00    +0.000 HD
ENDBRANCH  23  25
ENDBRANCH  20  23
ENDBRANCH  18  20
ENDBRANCH   7  18
BRANCH   8  27
ATOM     27  O   UNL     1      25.841   3.775  49.568  0.00  0.00    +0.000 OA
ATOM     28  H   UNL     1      25.933   3.400  48.714  0.00  0.00    +0.000 HD
ENDBRANCH   8  27
BRANCH   1  29
ATOM     29  C   UNL     1      21.926  -0.601  52.300  0.00  0.00    +0.000 C 
BRANCH  29  31
ATOM     30  C   UNL     1      22.442  -1.096  54.765  0.00  0.00    +0.000 C 
ATOM     31  C   UNL     1      21.386  -1.088  53.661  0.00  0.00    +0.000 C 
ENDBRANCH  29  31
ENDBRANCH   1  29
TORSDOF 7
ENDMDL
MODEL 8
REMARK VINA RESULT:    -7.437      1.620      2.069
REMARK INTER + INTRA:         -11.387
REMARK INTER:                 -10.113
REMARK INTRA:                  -1.273
REMARK UNBOUND:                -1.341
REMARK  Name = 
REMARK  13 active torsions:
REMARK  status: ('A' for Active; 'I' for Inactive)
REMARK    1  A    between atoms: C_1  and  C_2
REMARK    2  A    between atoms: C_2  and  C_3
REMARK    3  A    between atoms: C_3  and  C_4
REMARK    4  A    between atoms: C_10  and  C_11
REMARK    5  A    between atoms: C_11  and  C_13
REMARK    6  A    between atoms: C_13  and  C_14
REMARK    7  A    between atoms: C_13  and  C_15
REMARK    8  A    between atoms: C_13  and  C_16
REMARK    9  A    between atoms: C_16  and  C_17
REMARK   10  A    between atoms: C_16  and  O_18
REMARK   11  A    between atoms: C_19  and  O_20
REMARK   12  A    between atoms: C_25  and  C_26
REMARK   13  A    between atoms: C_25  and  C_27
REMARK                            x       y       z     vdW  Elec       q    Type
REMARK                         _______ _______ _______ _____ _____    ______ ____
ROOT
ATOM      1  C   UNL     1      22.072   2.476  52.122  0.00  0.00    +0.000 A 
ATOM      2  C   UNL     1      22.210   1.417  52.937  0.00  0.00    +0.000 A 
ATOM      3  C   UNL     1      22.792   0.173  52.457  0.00  0.00    +0.000 A 
ATOM      4  O   UNL     1      22.300  -0.922  52.688  0.00  0.00    +0.000 OA
ATOM      5  O   UNL     1      23.944   0.363  51.755  0.00  0.00    +0.000 OA
ATOM      6  C   UNL     1      24.272   1.686  51.395  0.00  0.00    +0.000 A 
ATOM      7  C   UNL     1      25.643   1.962  51.266  0.00  0.00    +0.000 A 
ATOM      8  C   UNL     1      25.974   3.109  50.564  0.00  0.00    +0.000 A 
ATOM      9  C   UNL     1      24.948   3.938  50.023  0.00  0.00    +0.000 A 
ATOM     10  C   UNL     1      23.590   3.746  50.377  0.00  0.00    +0.000 A 
ATOM     11  C   UNL     1      23.246   2.643  51.180  0.00  0.00    +0.000 A 
ATOM     12  O   UNL     1      22.619   4.627  49.961  0.00  0.00    +0.000 OA
ATOM     13  C   UNL     1      22.903   5.484  48.808  0.00  0.00    +0.000 C 
ATOM     14  C   UNL     1      22.273   4.841  47.565  0.00  0.00    +0.000 C 
ATOM     15  C   UNL     1      22.270   6.847  49.063  0.00  0.00    +0.000 C 
ATOM     16  C   UNL     1      24.366   5.719  48.542  0.00  0.00    +0.000 C 
ATOM     17  C   UNL     1      25.331   5.027  49.138  0.00  0.00    +0.000 C 
ENDROOT
BRANCH   7  18
ATOM     18  C   UNL     1      26.485   1.200  52.240  0.00  0.00    +0.000 C 
ATOM     19  O   UNL     1      26.862   0.086  51.842  0.00  0.00    +0.000 OA
BRANCH  18  20
ATOM     20  C   UNL     1      26.848   1.631  53.686  0.00  0.00    +0.000 C 
ATOM     21  C   UNL     1      28.244   2.283  53.781  0.00  0.00    +0.000 C 
ATOM     22  C   UNL     1      25.728   2.580  54.205  0.00  0.00    +0.000 C 
BRANCH  20  23
ATOM     23  C   UNL     1      26.855   0.364  54.657  0.00  0.00    +0.000 C 
ATOM     24  C   UNL     1      25.567  -0.438  54.802  0.00  0.00    +0.000 C 
BRANCH  23  25
ATOM     25  O   UNL     1      27.931  -0.501  54.325  0.00  0.00    +0.000 OA
ATOM     26  H   UNL     1      28.772  -0.075  54.555  0.00  0.00    +0.000 HD
ENDBRANCH  23  25
ENDBRANCH  20  23
ENDBRANCH  18  20
ENDBRANCH   7  18
BRANCH   8  27
ATOM     27  O   UNL     1      27.252   3.548  50.373  0.00  0.00    +0.000 OA
ATOM     28  H   UNL     1      27.787   3.767  51.111  0.00  0.00    +0.000 HD
ENDBRANCH   8  27
BRANCH   1  29
ATOM     29  C   UNL     1      21.162   3.581  52.573  0.00  0.00    +0.000 C 
BRANCH  29  31
ATOM     30  C   UNL     1      19.487   3.601  50.628  0.00  0.00    +0.000 C 
ATOM     31  C   UNL     1      19.719   3.292  52.106  0.00  0.00    +0.000 C 
ENDBRANCH  29  31
ENDBRANCH   1  29
TORSDOF 7
ENDMDL
MODEL 9
REMARK VINA RESULT:    -6.990      1.974      6.321
REMARK INTER + INTRA:         -10.783
REMARK INTER:                  -9.497
REMARK INTRA:                  -1.286
REMARK UNBOUND:                -1.341
REMARK  Name = 
REMARK  13 active torsions:
REMARK  status: ('A' for Active; 'I' for Inactive)
REMARK    1  A    between atoms: C_1  and  C_2
REMARK    2  A    between atoms: C_2  and  C_3
REMARK    3  A    between atoms: C_3  and  C_4
REMARK    4  A    between atoms: C_10  and  C_11
REMARK    5  A    between atoms: C_11  and  C_13
REMARK    6  A    between atoms: C_13  and  C_14
REMARK    7  A    between atoms: C_13  and  C_15
REMARK    8  A    between atoms: C_13  and  C_16
REMARK    9  A    between atoms: C_16  and  C_17
REMARK   10  A    between atoms: C_16  and  O_18
REMARK   11  A    between atoms: C_19  and  O_20
REMARK   12  A    between atoms: C_25  and  C_26
REMARK   13  A    between atoms: C_25  and  C_27
REMARK                            x       y       z     vdW  Elec       q    Type
REMARK                         _______ _______ _______ _____ _____    ______ ____
ROOT
ATOM      1  C   UNL     1      25.033   2.215  51.440  0.00  0.00    +0.000 A 
ATOM      2  C   UNL     1      24.398   1.180  52.017  0.00  0.00    +0.000 A 
ATOM      3  C   UNL     1      23.145   1.374  52.731  0.00  0.00    +0.000 A 
ATOM      4  O   UNL     1      22.925   0.883  53.829  0.00  0.00    +0.000 OA
ATOM      5  O   UNL     1      22.250   2.130  52.036  0.00  0.00    +0.000 OA
ATOM      6  C   UNL     1      22.719   2.795  50.885  0.00  0.00    +0.000 A 
ATOM      7  C   UNL     1      21.767   3.019  49.878  0.00  0.00    +0.000 A 
ATOM      8  C   UNL     1      22.091   3.976  48.931  0.00  0.00    +0.000 A 
ATOM      9  C   UNL     1      23.335   4.669  49.009  0.00  0.00    +0.000 A 
ATOM     10  C   UNL     1      24.353   4.244  49.898  0.00  0.00    +0.000 A 
ATOM     11  C   UNL     1      24.077   3.199  50.799  0.00  0.00    +0.000 A 
ATOM     12  O   UNL     1      25.598   4.829  49.877  0.00  0.00    +0.000 OA
ATOM     13  C   UNL     1      25.736   6.156  49.274  0.00  0.00    +0.000 C 
ATOM     14  C   UNL     1      25.717   7.199  50.399  0.00  0.00    +0.000 C 
ATOM     15  C   UNL     1      27.073   6.207  48.542  0.00  0.00    +0.000 C 
ATOM     16  C   UNL     1      24.669   6.506  48.270  0.00  0.00    +0.000 C 
ATOM     17  C   UNL     1      23.562   5.790  48.112  0.00  0.00    +0.000 C 
ENDROOT
BRANCH   7  18
ATOM     18  C   UNL     1      20.761   1.917  49.771  0.00  0.00    +0.000 C 
ATOM     19  O   UNL     1      21.180   0.881  49.232  0.00  0.00    +0.000 OA
BRANCH  18  20
ATOM     20  C   UNL     1      19.267   1.984  50.187  0.00  0.00    +0.000 C 
ATOM     21  C   UNL     1      18.333   2.310  49.003  0.00  0.00    +0.000 C 
ATOM     22  C   UNL     1      18.893   0.635  50.869  0.00  0.00    +0.000 C 
BRANCH  20  23
ATOM     23  C   UNL     1      19.048   3.122  51.284  0.00  0.00    +0.000 C 
ATOM     24  C   UNL     1      17.651   3.711  51.440  0.00  0.00    +0.000 C 
BRANCH  23  25
ATOM     25  O   UNL     1      19.535   2.687  52.545  0.00  0.00    +0.000 OA
ATOM     26  H   UNL     1      19.077   1.873  52.806  0.00  0.00    +0.000 HD
ENDBRANCH  23  25
ENDBRANCH  20  23
ENDBRANCH  18  20
ENDBRANCH   7  18
BRANCH   8  27
ATOM     27  O   UNL     1      21.301   4.296  47.865  0.00  0.00    +0.000 OA
ATOM     28  H   UNL     1      21.079   5.191  47.699  0.00  0.00    +0.000 HD
ENDBRANCH   8  27
BRANCH   1  29
ATOM     29  C   UNL     1      26.463   2.010  51.036  0.00  0.00    +0.000 C 
BRANCH  29  31
ATOM     30  C   UNL     1      27.882   2.229  53.163  0.00  0.00    +0.000 C 
ATOM     31  C   UNL     1      27.224   1.280  52.163  0.00  0.00    +0.000 C 
ENDBRANCH  29  31
ENDBRANCH   1  29
TORSDOF 7
ENDMDL
