MODEL 1
REMARK VINA RESULT:    -8.174      0.000      0.000
REMARK INTER + INTRA:         -12.929
REMARK INTER:                 -11.519
REMARK INTRA:                  -1.409
REMARK UNBOUND:                -1.409
REMARK  Name = 
REMARK  11 active torsions:
REMARK  status: ('A' for Active; 'I' for Inactive)
REMARK    1  A    between atoms: C_1  and  C_2
REMARK    2  A    between atoms: C_2  and  C_3
REMARK    3  A    between atoms: C_3  and  O_5
REMARK    4  A    between atoms: O_5  and  C_6
REMARK    5  A    between atoms: C_6  and  C_7
REMARK    6  A    between atoms: C_6  and  C_12
REMARK    7  A    between atoms: C_7  and  C_8
REMARK    8  A    between atoms: C_9  and  C_10
REMARK    9  A    between atoms: C_9  and  C_11
REMARK   10  A    between atoms: C_17  and  O_18
REMARK   11  A    between atoms: C_21  and  O_22
REMARK                            x       y       z     vdW  Elec       q    Type
REMARK                         _______ _______ _______ _____ _____    ______ ____
ROOT
ATOM      1  C   UNL     1      24.914   0.570  52.673  0.00  0.00    +0.000 C 
ATOM      2  C   UNL     1      25.165  -0.731  52.426  0.00  0.00    +0.000 C 
ATOM      3  C   UNL     1      26.455  -1.351  52.733  0.00  0.00    +0.000 C 
ATOM      4  O   UNL     1      26.643  -2.545  52.514  0.00  0.00    +0.000 OA
ATOM      5  C   UNL     1      27.535  -0.496  53.246  0.00  0.00    +0.000 A 
ATOM      6  C   UNL     1      28.812  -1.032  53.462  0.00  0.00    +0.000 A 
ATOM      7  C   UNL     1      29.846  -0.234  53.941  0.00  0.00    +0.000 A 
ATOM      8  C   UNL     1      29.622   1.119  54.182  0.00  0.00    +0.000 A 
ATOM      9  C   UNL     1      28.357   1.663  53.953  0.00  0.00    +0.000 A 
ATOM     10  C   UNL     1      27.296   0.857  53.509  0.00  0.00    +0.000 A 
ATOM     11  C   UNL     1      25.931   1.406  53.345  0.00  0.00    +0.000 C 
ATOM     12  O   UNL     1      25.616   2.510  53.773  0.00  0.00    +0.000 OA
ENDROOT
BRANCH   6  13
ATOM     13  O   UNL     1      29.129  -2.344  53.226  0.00  0.00    +0.000 OA
ATOM     14  H   UNL     1      28.796  -2.776  52.464  0.00  0.00    +0.000 HD
ENDBRANCH   6  13
BRANCH   9  15
ATOM     15  O   UNL     1      28.185   3.004  54.143  0.00  0.00    +0.000 OA
ATOM     16  H   UNL     1      28.771   3.478  54.700  0.00  0.00    +0.000 HD
ENDBRANCH   9  15
BRANCH   1  17
ATOM     17  C   UNL     1      23.614   1.286  52.331  0.00  0.00    +0.000 C 
BRANCH  17  18
ATOM     18  O   UNL     1      22.429   0.425  52.492  0.00  0.00    +0.000 OA
BRANCH  18  19
ATOM     19  C   UNL     1      21.389   0.798  53.306  0.00  0.00    +0.000 C 
ATOM     20  O   UNL     1      20.677   1.754  53.082  0.00  0.00    +0.000 OA
BRANCH  19  22
ATOM     21  C   UNL     1      22.069  -1.249  54.759  0.00  0.00    +0.000 C 
ATOM     22  C   UNL     1      21.253   0.025  54.608  0.00  0.00    +0.000 C 
ENDBRANCH  19  22
ENDBRANCH  18  19
ENDBRANCH  17  18
BRANCH  17  23
ATOM     23  C   UNL     1      23.710   1.867  50.900  0.00  0.00    +0.000 C 
BRANCH  23  24
ATOM     24  C   UNL     1      23.959   3.333  50.795  0.00  0.00    +0.000 C 
ATOM     25  C   UNL     1      25.101   3.863  50.330  0.00  0.00    +0.000 C 
ATOM     26  C   UNL     1      25.230   5.343  50.136  0.00  0.00    +0.000 C 
ATOM     27  C   UNL     1      26.282   3.011  49.970  0.00  0.00    +0.000 C 
ENDBRANCH  23  24
ENDBRANCH  17  23
ENDBRANCH   1  17
TORSDOF 8
ENDMDL
MODEL 2
REMARK VINA RESULT:    -7.927      1.426      1.897
REMARK INTER + INTRA:         -12.580
REMARK INTER:                 -11.529
REMARK INTRA:                  -1.051
REMARK UNBOUND:                -1.409
REMARK  Name = 
REMARK  11 active torsions:
REMARK  status: ('A' for Active; 'I' for Inactive)
REMARK    1  A    between atoms: C_1  and  C_2
REMARK    2  A    between atoms: C_2  and  C_3
REMARK    3  A    between atoms: C_3  and  O_5
REMARK    4  A    between atoms: O_5  and  C_6
REMARK    5  A    between atoms: C_6  and  C_7
REMARK    6  A    between atoms: C_6  and  C_12
REMARK    7  A    between atoms: C_7  and  C_8
REMARK    8  A    between atoms: C_9  and  C_10
REMARK    9  A    between atoms: C_9  and  C_11
REMARK   10  A    between atoms: C_17  and  O_18
REMARK   11  A    between atoms: C_21  and  O_22
REMARK                            x       y       z     vdW  Elec       q    Type
REMARK                         _______ _______ _______ _____ _____    ______ ____
ROOT
ATOM      1  C   UNL     1      25.950   1.196  52.480  0.00  0.00    +0.000 C 
ATOM      2  C   UNL     1      25.639  -0.071  52.142  0.00  0.00    +0.000 C 
ATOM      3  C   UNL     1      26.537  -1.196  52.409  0.00  0.00    +0.000 C 
ATOM      4  O   UNL     1      26.211  -2.341  52.106  0.00  0.00    +0.000 OA
ATOM      5  C   UNL     1      27.859  -0.911  52.986  0.00  0.00    +0.000 A 
ATOM      6  C   UNL     1      28.783  -1.949  53.168  0.00  0.00    +0.000 A 
ATOM      7  C   UNL     1      30.040  -1.694  53.706  0.00  0.00    +0.000 A 
ATOM      8  C   UNL     1      30.399  -0.392  54.042  0.00  0.00    +0.000 A 
ATOM      9  C   UNL     1      29.489   0.649  53.848  0.00  0.00    +0.000 A 
ATOM     10  C   UNL     1      28.202   0.397  53.344  0.00  0.00    +0.000 A 
ATOM     11  C   UNL     1      27.202   1.479  53.214  0.00  0.00    +0.000 C 
ATOM     12  O   UNL     1      27.367   2.584  53.718  0.00  0.00    +0.000 OA
ENDROOT
BRANCH   6  13
ATOM     13  O   UNL     1      28.526  -3.254  52.840  0.00  0.00    +0.000 OA
ATOM     14  H   UNL     1      28.498  -3.909  53.510  0.00  0.00    +0.000 HD
ENDBRANCH   6  13
BRANCH   9  15
ATOM     15  O   UNL     1      29.891   1.923  54.132  0.00  0.00    +0.000 OA
ATOM     16  H   UNL     1      30.804   2.117  54.220  0.00  0.00    +0.000 HD
ENDBRANCH   9  15
BRANCH   1  17
ATOM     17  C   UNL     1      25.086   2.414  52.185  0.00  0.00    +0.000 C 
BRANCH  17  18
ATOM     18  O   UNL     1      23.756   2.335  52.814  0.00  0.00    +0.000 OA
BRANCH  18  19
ATOM     19  C   UNL     1      22.618   2.622  52.102  0.00  0.00    +0.000 C 
ATOM     20  O   UNL     1      22.167   3.742  51.989  0.00  0.00    +0.000 OA
BRANCH  19  22
ATOM     21  C   UNL     1      21.970   0.113  52.319  0.00  0.00    +0.000 C 
ATOM     22  C   UNL     1      21.852   1.426  51.561  0.00  0.00    +0.000 C 
ENDBRANCH  19  22
ENDBRANCH  18  19
ENDBRANCH  17  18
BRANCH  17  23
ATOM     23  C   UNL     1      24.984   2.612  50.654  0.00  0.00    +0.000 C 
BRANCH  23  24
ATOM     24  C   UNL     1      26.211   3.107  49.966  0.00  0.00    +0.000 C 
ATOM     25  C   UNL     1      26.275   4.271  49.302  0.00  0.00    +0.000 C 
ATOM     26  C   UNL     1      27.576   4.760  48.744  0.00  0.00    +0.000 C 
ATOM     27  C   UNL     1      25.067   5.138  49.104  0.00  0.00    +0.000 C 
ENDBRANCH  23  24
ENDBRANCH  17  23
ENDBRANCH   1  17
TORSDOF 8
ENDMDL
MODEL 3
REMARK VINA RESULT:    -7.775      1.143      3.886
REMARK INTER + INTRA:         -12.366
REMARK INTER:                 -11.623
REMARK INTRA:                  -0.743
REMARK UNBOUND:                -1.409
REMARK  Name = 
REMARK  11 active torsions:
REMARK  status: ('A' for Active; 'I' for Inactive)
REMARK    1  A    between atoms: C_1  and  C_2
REMARK    2  A    between atoms: C_2  and  C_3
REMARK    3  A    between atoms: C_3  and  O_5
REMARK    4  A    between atoms: O_5  and  C_6
REMARK    5  A    between atoms: C_6  and  C_7
REMARK    6  A    between atoms: C_6  and  C_12
REMARK    7  A    between atoms: C_7  and  C_8
REMARK    8  A    between atoms: C_9  and  C_10
REMARK    9  A    between atoms: C_9  and  C_11
REMARK   10  A    between atoms: C_17  and  O_18
REMARK   11  A    between atoms: C_21  and  O_22
REMARK                            x       y       z     vdW  Elec       q    Type
REMARK                         _______ _______ _______ _____ _____    ______ ____
ROOT
ATOM      1  C   UNL     1      25.120   0.523  52.502  0.00  0.00    +0.000 C 
ATOM      2  C   UNL     1      25.363  -0.782  52.265  0.00  0.00    +0.000 C 
ATOM      3  C   UNL     1      26.626  -1.422  52.635  0.00  0.00    +0.000 C 
ATOM      4  O   UNL     1      26.805  -2.618  52.423  0.00  0.00    +0.000 OA
ATOM      5  C   UNL     1      27.692  -0.584  53.203  0.00  0.00    +0.000 A 
ATOM      6  C   UNL     1      28.949  -1.141  53.481  0.00  0.00    +0.000 A 
ATOM      7  C   UNL     1      29.970  -0.359  54.011  0.00  0.00    +0.000 A 
ATOM      8  C   UNL     1      29.755   0.997  54.243  0.00  0.00    +0.000 A 
ATOM      9  C   UNL     1      28.512   1.561  53.953  0.00  0.00    +0.000 A 
ATOM     10  C   UNL     1      27.461   0.772  53.455  0.00  0.00    +0.000 A 
ATOM     11  C   UNL     1      26.116   1.342  53.225  0.00  0.00    +0.000 C 
ATOM     12  O   UNL     1      25.797   2.451  53.638  0.00  0.00    +0.000 OA
ENDROOT
BRANCH   6  13
ATOM     13  O   UNL     1      29.257  -2.457  53.258  0.00  0.00    +0.000 OA
ATOM     14  H   UNL     1      29.462  -3.018  53.980  0.00  0.00    +0.000 HD
ENDBRANCH   6  13
BRANCH   9  15
ATOM     15  O   UNL     1      28.352   2.904  54.136  0.00  0.00    +0.000 OA
ATOM     16  H   UNL     1      28.737   3.326  54.879  0.00  0.00    +0.000 HD
ENDBRANCH   9  15
BRANCH   1  17
ATOM     17  C   UNL     1      23.850   1.260  52.096  0.00  0.00    +0.000 C 
BRANCH  17  18
ATOM     18  O   UNL     1      24.116   2.619  51.592  0.00  0.00    +0.000 OA
BRANCH  18  19
ATOM     19  C   UNL     1      23.920   2.933  50.270  0.00  0.00    +0.000 C 
ATOM     20  O   UNL     1      22.898   2.679  49.669  0.00  0.00    +0.000 OA
BRANCH  19  22
ATOM     21  C   UNL     1      26.503   3.064  50.000  0.00  0.00    +0.000 C 
ATOM     22  C   UNL     1      25.123   3.504  49.537  0.00  0.00    +0.000 C 
ENDBRANCH  19  22
ENDBRANCH  18  19
ENDBRANCH  17  18
BRANCH  17  23
ATOM     23  C   UNL     1      22.862   1.274  53.287  0.00  0.00    +0.000 C 
BRANCH  23  24
ATOM     24  C   UNL     1      21.762   0.268  53.248  0.00  0.00    +0.000 C 
ATOM     25  C   UNL     1      21.676  -0.774  54.089  0.00  0.00    +0.000 C 
ATOM     26  C   UNL     1      20.476  -1.671  54.071  0.00  0.00    +0.000 C 
ATOM     27  C   UNL     1      22.752  -1.078  55.089  0.00  0.00    +0.000 C 
ENDBRANCH  23  24
ENDBRANCH  17  23
ENDBRANCH   1  17
TORSDOF 8
ENDMDL
MODEL 4
REMARK VINA RESULT:    -7.214      2.448      4.122
REMARK INTER + INTRA:         -11.576
REMARK INTER:                 -10.495
REMARK INTRA:                  -1.081
REMARK UNBOUND:                -1.409
REMARK  Name = 
REMARK  11 active torsions:
REMARK  status: ('A' for Active; 'I' for Inactive)
REMARK    1  A    between atoms: C_1  and  C_2
REMARK    2  A    between atoms: C_2  and  C_3
REMARK    3  A    between atoms: C_3  and  O_5
REMARK    4  A    between atoms: O_5  and  C_6
REMARK    5  A    between atoms: C_6  and  C_7
REMARK    6  A    between atoms: C_6  and  C_12
REMARK    7  A    between atoms: C_7  and  C_8
REMARK    8  A    between atoms: C_9  and  C_10
REMARK    9  A    between atoms: C_9  and  C_11
REMARK   10  A    between atoms: C_17  and  O_18
REMARK   11  A    between atoms: C_21  and  O_22
REMARK                            x       y       z     vdW  Elec       q    Type
REMARK                         _______ _______ _______ _____ _____    ______ ____
ROOT
ATOM      1  C   UNL     1      23.410   1.426  51.564  0.00  0.00    +0.000 C 
ATOM      2  C   UNL     1      22.993   0.520  52.471  0.00  0.00    +0.000 C 
ATOM      3  C   UNL     1      23.847   0.059  53.567  0.00  0.00    +0.000 C 
ATOM      4  O   UNL     1      23.426  -0.752  54.387  0.00  0.00    +0.000 OA
ATOM      5  C   UNL     1      25.235   0.541  53.620  0.00  0.00    +0.000 A 
ATOM      6  C   UNL     1      26.111   0.049  54.597  0.00  0.00    +0.000 A 
ATOM      7  C   UNL     1      27.429   0.490  54.655  0.00  0.00    +0.000 A 
ATOM      8  C   UNL     1      27.895   1.407  53.717  0.00  0.00    +0.000 A 
ATOM      9  C   UNL     1      27.032   1.888  52.731  0.00  0.00    +0.000 A 
ATOM     10  C   UNL     1      25.688   1.480  52.688  0.00  0.00    +0.000 A 
ATOM     11  C   UNL     1      24.745   2.048  51.700  0.00  0.00    +0.000 C 
ATOM     12  O   UNL     1      25.023   3.028  51.019  0.00  0.00    +0.000 OA
ENDROOT
BRANCH   6  13
ATOM     13  O   UNL     1      25.747  -0.874  55.541  0.00  0.00    +0.000 OA
ATOM     14  H   UNL     1      25.021  -1.446  55.382  0.00  0.00    +0.000 HD
ENDBRANCH   6  13
BRANCH   9  15
ATOM     15  O   UNL     1      27.534   2.740  51.790  0.00  0.00    +0.000 OA
ATOM     16  H   UNL     1      26.988   3.408  51.424  0.00  0.00    +0.000 HD
ENDBRANCH   9  15
BRANCH   1  17
ATOM     17  C   UNL     1      22.592   1.907  50.374  0.00  0.00    +0.000 C 
BRANCH  17  18
ATOM     18  O   UNL     1      21.874   3.165  50.647  0.00  0.00    +0.000 OA
BRANCH  18  19
ATOM     19  C   UNL     1      21.586   3.550  51.932  0.00  0.00    +0.000 C 
ATOM     20  O   UNL     1      20.689   3.064  52.588  0.00  0.00    +0.000 OA
BRANCH  19  22
ATOM     21  C   UNL     1      22.932   5.721  51.447  0.00  0.00    +0.000 C 
ATOM     22  C   UNL     1      22.371   4.739  52.463  0.00  0.00    +0.000 C 
ENDBRANCH  19  22
ENDBRANCH  18  19
ENDBRANCH  17  18
BRANCH  17  23
ATOM     23  C   UNL     1      21.628   0.783  49.925  0.00  0.00    +0.000 C 
BRANCH  23  24
ATOM     24  C   UNL     1      20.256   1.207  49.523  0.00  0.00    +0.000 C 
ATOM     25  C   UNL     1      19.157   0.958  50.251  0.00  0.00    +0.000 C 
ATOM     26  C   UNL     1      17.830   1.524  49.845  0.00  0.00    +0.000 C 
ATOM     27  C   UNL     1      19.203   0.127  51.499  0.00  0.00    +0.000 C 
ENDBRANCH  23  24
ENDBRANCH  17  23
ENDBRANCH   1  17
TORSDOF 8
ENDMDL
MODEL 5
REMARK VINA RESULT:    -7.149      2.238      6.649
REMARK INTER + INTRA:         -11.483
REMARK INTER:                 -11.012
REMARK INTRA:                  -0.471
REMARK UNBOUND:                -1.409
REMARK  Name = 
REMARK  11 active torsions:
REMARK  status: ('A' for Active; 'I' for Inactive)
REMARK    1  A    between atoms: C_1  and  C_2
REMARK    2  A    between atoms: C_2  and  C_3
REMARK    3  A    between atoms: C_3  and  O_5
REMARK    4  A    between atoms: O_5  and  C_6
REMARK    5  A    between atoms: C_6  and  C_7
REMARK    6  A    between atoms: C_6  and  C_12
REMARK    7  A    between atoms: C_7  and  C_8
REMARK    8  A    between atoms: C_9  and  C_10
REMARK    9  A    between atoms: C_9  and  C_11
REMARK   10  A    between atoms: C_17  and  O_18
REMARK   11  A    between atoms: C_21  and  O_22
REMARK                            x       y       z     vdW  Elec       q    Type
REMARK                         _______ _______ _______ _____ _____    ______ ____
ROOT
ATOM      1  C   UNL     1      25.209   2.532  52.479  0.00  0.00    +0.000 C 
ATOM      2  C   UNL     1      24.147   3.172  53.006  0.00  0.00    +0.000 C 
ATOM      3  C   UNL     1      23.541   4.341  52.367  0.00  0.00    +0.000 C 
ATOM      4  O   UNL     1      22.561   4.887  52.866  0.00  0.00    +0.000 OA
ATOM      5  C   UNL     1      24.176   4.881  51.156  0.00  0.00    +0.000 A 
ATOM      6  C   UNL     1      23.683   6.055  50.570  0.00  0.00    +0.000 A 
ATOM      7  C   UNL     1      24.277   6.582  49.428  0.00  0.00    +0.000 A 
ATOM      8  C   UNL     1      25.391   5.956  48.874  0.00  0.00    +0.000 A 
ATOM      9  C   UNL     1      25.896   4.796  49.463  0.00  0.00    +0.000 A 
ATOM     10  C   UNL     1      25.279   4.232  50.593  0.00  0.00    +0.000 A 
ATOM     11  C   UNL     1      25.756   2.958  51.173  0.00  0.00    +0.000 C 
ATOM     12  O   UNL     1      26.561   2.237  50.594  0.00  0.00    +0.000 OA
ENDROOT
BRANCH   6  13
ATOM     13  O   UNL     1      22.611   6.751  51.062  0.00  0.00    +0.000 OA
ATOM     14  H   UNL     1      22.600   7.022  51.960  0.00  0.00    +0.000 HD
ENDBRANCH   6  13
BRANCH   9  15
ATOM     15  O   UNL     1      27.025   4.239  48.932  0.00  0.00    +0.000 OA
ATOM     16  H   UNL     1      26.957   3.628  48.225  0.00  0.00    +0.000 HD
ENDBRANCH   9  15
BRANCH   1  17
ATOM     17  C   UNL     1      25.916   1.344  53.118  0.00  0.00    +0.000 C 
BRANCH  17  18
ATOM     18  O   UNL     1      27.334   1.247  52.727  0.00  0.00    +0.000 OA
BRANCH  18  19
ATOM     19  C   UNL     1      28.334   1.573  53.608  0.00  0.00    +0.000 C 
ATOM     20  O   UNL     1      28.834   2.676  53.670  0.00  0.00    +0.000 OA
BRANCH  19  22
ATOM     21  C   UNL     1      29.502  -0.750  53.674  0.00  0.00    +0.000 C 
ATOM     22  C   UNL     1      28.898   0.425  54.429  0.00  0.00    +0.000 C 
ENDBRANCH  19  22
ENDBRANCH  18  19
ENDBRANCH  17  18
BRANCH  17  23
ATOM     23  C   UNL     1      25.140   0.047  52.790  0.00  0.00    +0.000 C 
BRANCH  23  24
ATOM     24  C   UNL     1      24.223  -0.464  53.848  0.00  0.00    +0.000 C 
ATOM     25  C   UNL     1      22.888  -0.509  53.719  0.00  0.00    +0.000 C 
ATOM     26  C   UNL     1      22.042  -1.152  54.775  0.00  0.00    +0.000 C 
ATOM     27  C   UNL     1      22.188   0.058  52.520  0.00  0.00    +0.000 C 
ENDBRANCH  23  24
ENDBRANCH  17  23
ENDBRANCH   1  17
TORSDOF 8
ENDMDL
MODEL 6
REMARK VINA RESULT:    -7.076      2.429      5.074
REMARK INTER + INTRA:         -11.381
REMARK INTER:                 -10.480
REMARK INTRA:                  -0.901
REMARK UNBOUND:                -1.409
REMARK  Name = 
REMARK  11 active torsions:
REMARK  status: ('A' for Active; 'I' for Inactive)
REMARK    1  A    between atoms: C_1  and  C_2
REMARK    2  A    between atoms: C_2  and  C_3
REMARK    3  A    between atoms: C_3  and  O_5
REMARK    4  A    between atoms: O_5  and  C_6
REMARK    5  A    between atoms: C_6  and  C_7
REMARK    6  A    between atoms: C_6  and  C_12
REMARK    7  A    between atoms: C_7  and  C_8
REMARK    8  A    between atoms: C_9  and  C_10
REMARK    9  A    between atoms: C_9  and  C_11
REMARK   10  A    between atoms: C_17  and  O_18
REMARK   11  A    between atoms: C_21  and  O_22
REMARK                            x       y       z     vdW  Elec       q    Type
REMARK                         _______ _______ _______ _____ _____    ______ ____
ROOT
ATOM      1  C   UNL     1      23.858   2.060  51.333  0.00  0.00    +0.000 C 
ATOM      2  C   UNL     1      25.066   1.597  51.711  0.00  0.00    +0.000 C 
ATOM      3  C   UNL     1      25.224   0.573  52.745  0.00  0.00    +0.000 C 
ATOM      4  O   UNL     1      26.339   0.160  53.051  0.00  0.00    +0.000 OA
ATOM      5  C   UNL     1      24.022   0.105  53.451  0.00  0.00    +0.000 A 
ATOM      6  C   UNL     1      24.141  -0.803  54.512  0.00  0.00    +0.000 A 
ATOM      7  C   UNL     1      23.014  -1.250  55.194  0.00  0.00    +0.000 A 
ATOM      8  C   UNL     1      21.755  -0.771  54.842  0.00  0.00    +0.000 A 
ATOM      9  C   UNL     1      21.632   0.146  53.797  0.00  0.00    +0.000 A 
ATOM     10  C   UNL     1      22.759   0.573  53.075  0.00  0.00    +0.000 A 
ATOM     11  C   UNL     1      22.628   1.479  51.912  0.00  0.00    +0.000 C 
ATOM     12  O   UNL     1      21.544   1.735  51.402  0.00  0.00    +0.000 OA
ENDROOT
BRANCH   6  13
ATOM     13  O   UNL     1      25.340  -1.305  54.945  0.00  0.00    +0.000 OA
ATOM     14  H   UNL     1      25.366  -2.112  55.422  0.00  0.00    +0.000 HD
ENDBRANCH   6  13
BRANCH   9  15
ATOM     15  O   UNL     1      20.391   0.643  53.514  0.00  0.00    +0.000 OA
ATOM     16  H   UNL     1      19.753   0.724  54.195  0.00  0.00    +0.000 HD
ENDBRANCH   9  15
BRANCH   1  17
ATOM     17  C   UNL     1      23.630   3.158  50.303  0.00  0.00    +0.000 C 
BRANCH  17  18
ATOM     18  O   UNL     1      23.702   2.663  48.917  0.00  0.00    +0.000 OA
BRANCH  18  19
ATOM     19  C   UNL     1      22.562   2.442  48.184  0.00  0.00    +0.000 C 
ATOM     20  O   UNL     1      21.944   1.399  48.211  0.00  0.00    +0.000 OA
BRANCH  19  22
ATOM     21  C   UNL     1      22.205   4.975  47.715  0.00  0.00    +0.000 C 
ATOM     22  C   UNL     1      22.175   3.541  47.208  0.00  0.00    +0.000 C 
ENDBRANCH  19  22
ENDBRANCH  18  19
ENDBRANCH  17  18
BRANCH  17  23
ATOM     23  C   UNL     1      24.629   4.312  50.552  0.00  0.00    +0.000 C 
BRANCH  23  24
ATOM     24  C   UNL     1      25.955   4.199  49.880  0.00  0.00    +0.000 C 
ATOM     25  C   UNL     1      26.465   5.143  49.074  0.00  0.00    +0.000 C 
ATOM     26  C   UNL     1      27.856   5.014  48.534  0.00  0.00    +0.000 C 
ATOM     27  C   UNL     1      25.684   6.366  48.692  0.00  0.00    +0.000 C 
ENDBRANCH  23  24
ENDBRANCH  17  23
ENDBRANCH   1  17
TORSDOF 8
ENDMDL
MODEL 7
REMARK VINA RESULT:    -7.031      2.451      6.681
REMARK INTER + INTRA:         -11.318
REMARK INTER:                 -10.100
REMARK INTRA:                  -1.218
REMARK UNBOUND:                -1.409
REMARK  Name = 
REMARK  11 active torsions:
REMARK  status: ('A' for Active; 'I' for Inactive)
REMARK    1  A    between atoms: C_1  and  C_2
REMARK    2  A    between atoms: C_2  and  C_3
REMARK    3  A    between atoms: C_3  and  O_5
REMARK    4  A    between atoms: O_5  and  C_6
REMARK    5  A    between atoms: C_6  and  C_7
REMARK    6  A    between atoms: C_6  and  C_12
REMARK    7  A    between atoms: C_7  and  C_8
REMARK    8  A    between atoms: C_9  and  C_10
REMARK    9  A    between atoms: C_9  and  C_11
REMARK   10  A    between atoms: C_17  and  O_18
REMARK   11  A    between atoms: C_21  and  O_22
REMARK                            x       y       z     vdW  Elec       q    Type
REMARK                         _______ _______ _______ _____ _____    ______ ____
ROOT
ATOM      1  C   UNL     1      22.838   0.823  52.529  0.00  0.00    +0.000 C 
ATOM      2  C   UNL     1      22.497   0.104  53.617  0.00  0.00    +0.000 C 
ATOM      3  C   UNL     1      21.178  -0.513  53.767  0.00  0.00    +0.000 C 
ATOM      4  O   UNL     1      20.909  -1.178  54.763  0.00  0.00    +0.000 OA
ATOM      5  C   UNL     1      20.168  -0.258  52.729  0.00  0.00    +0.000 A 
ATOM      6  C   UNL     1      18.865  -0.752  52.883  0.00  0.00    +0.000 A 
ATOM      7  C   UNL     1      17.896  -0.514  51.914  0.00  0.00    +0.000 A 
ATOM      8  C   UNL     1      18.212   0.246  50.790  0.00  0.00    +0.000 A 
ATOM      9  C   UNL     1      19.503   0.754  50.639  0.00  0.00    +0.000 A 
ATOM     10  C   UNL     1      20.500   0.485  51.592  0.00  0.00    +0.000 A 
ATOM     11  C   UNL     1      21.892   0.947  51.399  0.00  0.00    +0.000 C 
ATOM     12  O   UNL     1      22.288   1.398  50.330  0.00  0.00    +0.000 OA
ENDROOT
BRANCH   6  13
ATOM     13  O   UNL     1      18.459  -1.483  53.968  0.00  0.00    +0.000 OA
ATOM     14  H   UNL     1      17.560  -1.465  54.235  0.00  0.00    +0.000 HD
ENDBRANCH   6  13
BRANCH   9  15
ATOM     15  O   UNL     1      19.766   1.545  49.557  0.00  0.00    +0.000 OA
ATOM     16  H   UNL     1      20.303   2.306  49.653  0.00  0.00    +0.000 HD
ENDBRANCH   9  15
BRANCH   1  17
ATOM     17  C   UNL     1      24.171   1.531  52.335  0.00  0.00    +0.000 C 
BRANCH  17  18
ATOM     18  O   UNL     1      25.304   0.781  52.907  0.00  0.00    +0.000 OA
BRANCH  18  19
ATOM     19  C   UNL     1      26.518   0.737  52.268  0.00  0.00    +0.000 C 
ATOM     20  O   UNL     1      26.842   1.519  51.399  0.00  0.00    +0.000 OA
BRANCH  19  22
ATOM     21  C   UNL     1      26.781  -1.833  52.565  0.00  0.00    +0.000 C 
ATOM     22  C   UNL     1      27.407  -0.448  52.609  0.00  0.00    +0.000 C 
ENDBRANCH  19  22
ENDBRANCH  18  19
ENDBRANCH  17  18
BRANCH  17  23
ATOM     23  C   UNL     1      24.082   2.963  52.915  0.00  0.00    +0.000 C 
BRANCH  23  24
ATOM     24  C   UNL     1      24.055   4.078  51.926  0.00  0.00    +0.000 C 
ATOM     25  C   UNL     1      22.954   4.786  51.632  0.00  0.00    +0.000 C 
ATOM     26  C   UNL     1      23.032   5.974  50.722  0.00  0.00    +0.000 C 
ATOM     27  C   UNL     1      21.611   4.440  52.205  0.00  0.00    +0.000 C 
ENDBRANCH  23  24
ENDBRANCH  17  23
ENDBRANCH   1  17
TORSDOF 8
ENDMDL
MODEL 8
REMARK VINA RESULT:    -7.021      1.962      3.462
REMARK INTER + INTRA:         -11.303
REMARK INTER:                 -11.096
REMARK INTRA:                  -0.207
REMARK UNBOUND:                -1.409
REMARK  Name = 
REMARK  11 active torsions:
REMARK  status: ('A' for Active; 'I' for Inactive)
REMARK    1  A    between atoms: C_1  and  C_2
REMARK    2  A    between atoms: C_2  and  C_3
REMARK    3  A    between atoms: C_3  and  O_5
REMARK    4  A    between atoms: O_5  and  C_6
REMARK    5  A    between atoms: C_6  and  C_7
REMARK    6  A    between atoms: C_6  and  C_12
REMARK    7  A    between atoms: C_7  and  C_8
REMARK    8  A    between atoms: C_9  and  C_10
REMARK    9  A    between atoms: C_9  and  C_11
REMARK   10  A    between atoms: C_17  and  O_18
REMARK   11  A    between atoms: C_21  and  O_22
REMARK                            x       y       z     vdW  Elec       q    Type
REMARK                         _______ _______ _______ _____ _____    ______ ____
ROOT
ATOM      1  C   UNL     1      25.218   0.680  53.206  0.00  0.00    +0.000 C 
ATOM      2  C   UNL     1      25.889   1.797  53.551  0.00  0.00    +0.000 C 
ATOM      3  C   UNL     1      27.345   1.820  53.703  0.00  0.00    +0.000 C 
ATOM      4  O   UNL     1      27.926   2.861  53.998  0.00  0.00    +0.000 OA
ATOM      5  C   UNL     1      28.081   0.555  53.559  0.00  0.00    +0.000 A 
ATOM      6  C   UNL     1      29.463   0.518  53.791  0.00  0.00    +0.000 A 
ATOM      7  C   UNL     1      30.172  -0.672  53.666  0.00  0.00    +0.000 A 
ATOM      8  C   UNL     1      29.502  -1.847  53.335  0.00  0.00    +0.000 A 
ATOM      9  C   UNL     1      28.124  -1.819  53.119  0.00  0.00    +0.000 A 
ATOM     10  C   UNL     1      27.404  -0.615  53.202  0.00  0.00    +0.000 A 
ATOM     11  C   UNL     1      25.959  -0.561  52.892  0.00  0.00    +0.000 C 
ATOM     12  O   UNL     1      25.369  -1.495  52.360  0.00  0.00    +0.000 OA
ENDROOT
BRANCH   6  13
ATOM     13  O   UNL     1      30.198   1.618  54.148  0.00  0.00    +0.000 OA
ATOM     14  H   UNL     1      29.941   2.469  53.851  0.00  0.00    +0.000 HD
ENDBRANCH   6  13
BRANCH   9  15
ATOM     15  O   UNL     1      27.486  -2.997  52.854  0.00  0.00    +0.000 OA
ATOM     16  H   UNL     1      27.133  -3.158  52.000  0.00  0.00    +0.000 HD
ENDBRANCH   9  15
BRANCH   1  17
ATOM     17  C   UNL     1      23.704   0.576  53.082  0.00  0.00    +0.000 C 
BRANCH  17  18
ATOM     18  O   UNL     1      23.207  -0.794  53.296  0.00  0.00    +0.000 OA
BRANCH  18  19
ATOM     19  C   UNL     1      22.501  -1.121  54.427  0.00  0.00    +0.000 C 
ATOM     20  O   UNL     1      23.012  -1.245  55.520  0.00  0.00    +0.000 OA
BRANCH  19  22
ATOM     21  C   UNL     1      20.067  -0.316  53.993  0.00  0.00    +0.000 C 
ATOM     22  C   UNL     1      21.035  -1.466  54.220  0.00  0.00    +0.000 C 
ENDBRANCH  19  22
ENDBRANCH  18  19
ENDBRANCH  17  18
BRANCH  17  23
ATOM     23  C   UNL     1      23.262   1.138  51.710  0.00  0.00    +0.000 C 
BRANCH  23  24
ATOM     24  C   UNL     1      21.815   1.008  51.375  0.00  0.00    +0.000 C 
ATOM     25  C   UNL     1      21.309   1.242  50.154  0.00  0.00    +0.000 C 
ATOM     26  C   UNL     1      19.865   0.969  49.863  0.00  0.00    +0.000 C 
ATOM     27  C   UNL     1      22.156   1.764  49.031  0.00  0.00    +0.000 C 
ENDBRANCH  23  24
ENDBRANCH  17  23
ENDBRANCH   1  17
TORSDOF 8
ENDMDL
MODEL 9
REMARK VINA RESULT:    -6.890      2.381      6.553
REMARK INTER + INTRA:         -11.120
REMARK INTER:                 -10.639
REMARK INTRA:                  -0.481
REMARK UNBOUND:                -1.409
REMARK  Name = 
REMARK  11 active torsions:
REMARK  status: ('A' for Active; 'I' for Inactive)
REMARK    1  A    between atoms: C_1  and  C_2
REMARK    2  A    between atoms: C_2  and  C_3
REMARK    3  A    between atoms: C_3  and  O_5
REMARK    4  A    between atoms: O_5  and  C_6
REMARK    5  A    between atoms: C_6  and  C_7
REMARK    6  A    between atoms: C_6  and  C_12
REMARK    7  A    between atoms: C_7  and  C_8
REMARK    8  A    between atoms: C_9  and  C_10
REMARK    9  A    between atoms: C_9  and  C_11
REMARK   10  A    between atoms: C_17  and  O_18
REMARK   11  A    between atoms: C_21  and  O_22
REMARK                            x       y       z     vdW  Elec       q    Type
REMARK                         _______ _______ _______ _____ _____    ______ ____
ROOT
ATOM      1  C   UNL     1      25.606   2.504  51.461  0.00  0.00    +0.000 C 
ATOM      2  C   UNL     1      26.437   2.779  50.436  0.00  0.00    +0.000 C 
ATOM      3  C   UNL     1      26.398   4.052  49.716  0.00  0.00    +0.000 C 
ATOM      4  O   UNL     1      27.185   4.276  48.800  0.00  0.00    +0.000 OA
ATOM      5  C   UNL     1      25.353   5.023  50.072  0.00  0.00    +0.000 A 
ATOM      6  C   UNL     1      25.223   6.212  49.341  0.00  0.00    +0.000 A 
ATOM      7  C   UNL     1      24.234   7.137  49.662  0.00  0.00    +0.000 A 
ATOM      8  C   UNL     1      23.345   6.870  50.700  0.00  0.00    +0.000 A 
ATOM      9  C   UNL     1      23.459   5.680  51.420  0.00  0.00    +0.000 A 
ATOM     10  C   UNL     1      24.479   4.758  51.131  0.00  0.00    +0.000 A 
ATOM     11  C   UNL     1      24.661   3.535  51.943  0.00  0.00    +0.000 C 
ATOM     12  O   UNL     1      24.079   3.366  53.009  0.00  0.00    +0.000 OA
ENDROOT
BRANCH   6  13
ATOM     13  O   UNL     1      26.034   6.544  48.289  0.00  0.00    +0.000 OA
ATOM     14  H   UNL     1      26.855   6.107  48.174  0.00  0.00    +0.000 HD
ENDBRANCH   6  13
BRANCH   9  15
ATOM     15  O   UNL     1      22.537   5.420  52.392  0.00  0.00    +0.000 OA
ATOM     16  H   UNL     1      22.715   5.653  53.282  0.00  0.00    +0.000 HD
ENDBRANCH   9  15
BRANCH   1  17
ATOM     17  C   UNL     1      25.561   1.183  52.216  0.00  0.00    +0.000 C 
BRANCH  17  18
ATOM     18  O   UNL     1      26.586   0.229  51.758  0.00  0.00    +0.000 OA
BRANCH  18  19
ATOM     19  C   UNL     1      27.216  -0.611  52.642  0.00  0.00    +0.000 C 
ATOM     20  O   UNL     1      26.866  -1.756  52.838  0.00  0.00    +0.000 OA
BRANCH  19  22
ATOM     21  C   UNL     1      29.616  -0.755  53.631  0.00  0.00    +0.000 C 
ATOM     22  C   UNL     1      28.313   0.014  53.488  0.00  0.00    +0.000 C 
ENDBRANCH  19  22
ENDBRANCH  18  19
ENDBRANCH  17  18
BRANCH  17  23
ATOM     23  C   UNL     1      24.137   0.585  52.120  0.00  0.00    +0.000 C 
BRANCH  23  24
ATOM     24  C   UNL     1      23.641  -0.143  53.323  0.00  0.00    +0.000 C 
ATOM     25  C   UNL     1      22.355  -0.474  53.515  0.00  0.00    +0.000 C 
ATOM     26  C   UNL     1      21.951  -1.315  54.687  0.00  0.00    +0.000 C 
ATOM     27  C   UNL     1      21.275  -0.040  52.569  0.00  0.00    +0.000 C 
ENDBRANCH  23  24
ENDBRANCH  17  23
ENDBRANCH   1  17
TORSDOF 8
ENDMDL
