MODEL 1
REMARK VINA RESULT:    -8.589      0.000      0.000
REMARK INTER + INTRA:         -13.212
REMARK INTER:                 -12.104
REMARK INTRA:                  -1.108
REMARK UNBOUND:                -1.108
REMARK  Name = 
REMARK  11 active torsions:
REMARK  status: ('A' for Active; 'I' for Inactive)
REMARK    1  A    between atoms: C_1  and  C_2
REMARK    2  A    between atoms: C_2  and  C_3
REMARK    3  A    between atoms: C_3  and  C_4
REMARK    4  A    between atoms: C_4  and  N_5
REMARK    5  A    between atoms: C_7  and  C_8
REMARK    6  A    between atoms: N_10  and  C_11
REMARK    7  A    between atoms: C_11  and  C_12
REMARK    8  A    between atoms: C_12  and  N_13
REMARK    9  A    between atoms: N_13  and  C_14
REMARK   10  A    between atoms: N_13  and  C_15
REMARK   11  A    between atoms: C_19  and  C_20
REMARK                            x       y       z     vdW  Elec       q    Type
REMARK                         _______ _______ _______ _____ _____    ______ ____
ROOT
ATOM      1  N   UNL     1      27.343   1.279  53.328  0.00  0.00    +0.000 N 
ATOM      2  C   UNL     1      27.204   2.115  52.228  0.00  0.00    +0.000 A 
ATOM      3  C   UNL     1      26.049   2.275  51.554  0.00  0.00    +0.000 A 
ATOM      4  C   UNL     1      24.880   1.508  52.035  0.00  0.00    +0.000 A 
ATOM      5  N   UNL     1      23.693   1.685  51.391  0.00  0.00    +0.000 NA
ATOM      6  C   UNL     1      22.591   1.017  51.819  0.00  0.00    +0.000 A 
ATOM      7  C   UNL     1      21.363   1.159  51.160  0.00  0.00    +0.000 A 
ATOM      8  C   UNL     1      21.207   2.034  49.944  0.00  0.00    +0.000 C 
ATOM      9  C   UNL     1      20.225   0.464  51.605  0.00  0.00    +0.000 A 
ATOM     10  C   UNL     1      20.290  -0.368  52.717  0.00  0.00    +0.000 A 
ATOM     11  C   UNL     1      21.496  -0.520  53.384  0.00  0.00    +0.000 A 
ATOM     12  C   UNL     1      22.644   0.154  52.935  0.00  0.00    +0.000 A 
ATOM     13  C   UNL     1      23.870  -0.024  53.580  0.00  0.00    +0.000 A 
ATOM     14  C   UNL     1      24.998   0.650  53.116  0.00  0.00    +0.000 A 
ATOM     15  C   UNL     1      26.299   0.472  53.788  0.00  0.00    +0.000 A 
ATOM     16  O   UNL     1      26.394  -0.342  54.700  0.00  0.00    +0.000 OA
ENDROOT
BRANCH   3  17
ATOM     17  C   UNL     1      26.065   3.256  50.404  0.00  0.00    +0.000 C 
ATOM     18  O   UNL     1      26.781   3.096  49.420  0.00  0.00    +0.000 OA
ATOM     19  N   UNL     1      25.224   4.330  50.545  0.00  0.00    +0.000 N 
ATOM     20  H   UNL     1      24.609   4.317  51.314  0.00  0.00    +0.000 HD
BRANCH  19  21
ATOM     21  C   UNL     1      25.154   5.487  49.663  0.00  0.00    +0.000 C 
BRANCH  21  22
ATOM     22  C   UNL     1      25.494   6.832  50.341  0.00  0.00    +0.000 C 
BRANCH  22  23
ATOM     23  N   UNL     1      26.806   7.414  49.957  0.00  0.00    +0.000 N 
ATOM     24  C   UNL     1      27.226   6.885  48.655  0.00  0.00    +0.000 C 
ATOM     25  C   UNL     1      26.786   8.876  49.904  0.00  0.00    +0.000 C 
ATOM     26  H   UNL     1      27.470   7.146  50.682  0.00  0.00    +0.000 HD
ENDBRANCH  22  23
ENDBRANCH  21  22
ENDBRANCH  19  21
ENDBRANCH   3  17
BRANCH   1  27
ATOM     27  C   UNL     1      28.613   1.254  54.061  0.00  0.00    +0.000 C 
BRANCH  27  28
ATOM     28  C   UNL     1      29.698   0.415  53.366  0.00  0.00    +0.000 C 
BRANCH  28  30
ATOM     29  C   UNL     1      29.068  -2.014  53.139  0.00  0.00    +0.000 C 
ATOM     30  C   UNL     1      29.848  -0.992  53.953  0.00  0.00    +0.000 C 
ENDBRANCH  28  30
ENDBRANCH  27  28
ENDBRANCH   1  27
TORSDOF 7
ENDMDL
MODEL 2
REMARK VINA RESULT:    -8.143      1.580      1.906
REMARK INTER + INTRA:         -12.583
REMARK INTER:                 -11.664
REMARK INTRA:                  -0.919
REMARK UNBOUND:                -1.108
REMARK  Name = 
REMARK  11 active torsions:
REMARK  status: ('A' for Active; 'I' for Inactive)
REMARK    1  A    between atoms: C_1  and  C_2
REMARK    2  A    between atoms: C_2  and  C_3
REMARK    3  A    between atoms: C_3  and  C_4
REMARK    4  A    between atoms: C_4  and  N_5
REMARK    5  A    between atoms: C_7  and  C_8
REMARK    6  A    between atoms: N_10  and  C_11
REMARK    7  A    between atoms: C_11  and  C_12
REMARK    8  A    between atoms: C_12  and  N_13
REMARK    9  A    between atoms: N_13  and  C_14
REMARK   10  A    between atoms: N_13  and  C_15
REMARK   11  A    between atoms: C_19  and  C_20
REMARK                            x       y       z     vdW  Elec       q    Type
REMARK                         _______ _______ _______ _____ _____    ______ ____
ROOT
ATOM      1  N   UNL     1      26.672   0.588  53.873  0.00  0.00    +0.000 N 
ATOM      2  C   UNL     1      26.552   1.524  52.853  0.00  0.00    +0.000 A 
ATOM      3  C   UNL     1      25.396   1.787  52.215  0.00  0.00    +0.000 A 
ATOM      4  C   UNL     1      24.204   1.024  52.644  0.00  0.00    +0.000 A 
ATOM      5  N   UNL     1      23.017   1.302  52.037  0.00  0.00    +0.000 NA
ATOM      6  C   UNL     1      21.895   0.641  52.422  0.00  0.00    +0.000 A 
ATOM      7  C   UNL     1      20.665   0.887  51.798  0.00  0.00    +0.000 A 
ATOM      8  C   UNL     1      20.528   1.873  50.667  0.00  0.00    +0.000 C 
ATOM      9  C   UNL     1      19.506   0.199  52.199  0.00  0.00    +0.000 A 
ATOM     10  C   UNL     1      19.553  -0.731  53.231  0.00  0.00    +0.000 A 
ATOM     11  C   UNL     1      20.761  -0.987  53.862  0.00  0.00    +0.000 A 
ATOM     12  C   UNL     1      21.928  -0.319  53.457  0.00  0.00    +0.000 A 
ATOM     13  C   UNL     1      23.154  -0.600  54.064  0.00  0.00    +0.000 A 
ATOM     14  C   UNL     1      24.302   0.069  53.643  0.00  0.00    +0.000 A 
ATOM     15  C   UNL     1      25.604  -0.216  54.276  0.00  0.00    +0.000 A 
ATOM     16  O   UNL     1      25.678  -1.112  55.110  0.00  0.00    +0.000 OA
ENDROOT
BRANCH   3  17
ATOM     17  C   UNL     1      25.435   2.864  51.156  0.00  0.00    +0.000 C 
ATOM     18  O   UNL     1      26.188   2.801  50.188  0.00  0.00    +0.000 OA
ATOM     19  N   UNL     1      24.572   3.911  51.359  0.00  0.00    +0.000 N 
ATOM     20  H   UNL     1      23.932   3.823  52.102  0.00  0.00    +0.000 HD
BRANCH  19  21
ATOM     21  C   UNL     1      24.514   5.140  50.580  0.00  0.00    +0.000 C 
BRANCH  21  22
ATOM     22  C   UNL     1      24.215   6.410  51.406  0.00  0.00    +0.000 C 
BRANCH  22  23
ATOM     23  N   UNL     1      22.839   6.949  51.253  0.00  0.00    +0.000 N 
ATOM     24  C   UNL     1      22.801   7.918  50.153  0.00  0.00    +0.000 C 
ATOM     25  C   UNL     1      21.842   5.904  51.016  0.00  0.00    +0.000 C 
ATOM     26  H   UNL     1      22.601   7.401  52.135  0.00  0.00    +0.000 HD
ENDBRANCH  22  23
ENDBRANCH  21  22
ENDBRANCH  19  21
ENDBRANCH   3  17
BRANCH   1  27
ATOM     27  C   UNL     1      27.949   0.450  54.579  0.00  0.00    +0.000 C 
BRANCH  27  28
ATOM     28  C   UNL     1      29.168   0.492  53.644  0.00  0.00    +0.000 C 
BRANCH  28  30
ATOM     29  C   UNL     1      29.091  -1.998  53.268  0.00  0.00    +0.000 C 
ATOM     30  C   UNL     1      29.971  -0.812  53.632  0.00  0.00    +0.000 C 
ENDBRANCH  28  30
ENDBRANCH  27  28
ENDBRANCH   1  27
TORSDOF 7
ENDMDL
MODEL 3
REMARK VINA RESULT:    -8.021      1.989      5.930
REMARK INTER + INTRA:         -12.412
REMARK INTER:                 -11.391
REMARK INTRA:                  -1.021
REMARK UNBOUND:                -1.108
REMARK  Name = 
REMARK  11 active torsions:
REMARK  status: ('A' for Active; 'I' for Inactive)
REMARK    1  A    between atoms: C_1  and  C_2
REMARK    2  A    between atoms: C_2  and  C_3
REMARK    3  A    between atoms: C_3  and  C_4
REMARK    4  A    between atoms: C_4  and  N_5
REMARK    5  A    between atoms: C_7  and  C_8
REMARK    6  A    between atoms: N_10  and  C_11
REMARK    7  A    between atoms: C_11  and  C_12
REMARK    8  A    between atoms: C_12  and  N_13
REMARK    9  A    between atoms: N_13  and  C_14
REMARK   10  A    between atoms: N_13  and  C_15
REMARK   11  A    between atoms: C_19  and  C_20
REMARK                            x       y       z     vdW  Elec       q    Type
REMARK                         _______ _______ _______ _____ _____    ______ ____
ROOT
ATOM      1  N   UNL     1      23.760   3.521  50.153  0.00  0.00    +0.000 N 
ATOM      2  C   UNL     1      24.535   2.978  51.169  0.00  0.00    +0.000 A 
ATOM      3  C   UNL     1      24.080   2.064  52.048  0.00  0.00    +0.000 A 
ATOM      4  C   UNL     1      22.674   1.633  51.899  0.00  0.00    +0.000 A 
ATOM      5  N   UNL     1      22.205   0.682  52.753  0.00  0.00    +0.000 NA
ATOM      6  C   UNL     1      20.927   0.241  52.631  0.00  0.00    +0.000 A 
ATOM      7  C   UNL     1      20.409  -0.717  53.513  0.00  0.00    +0.000 A 
ATOM      8  C   UNL     1      21.228  -1.288  54.641  0.00  0.00    +0.000 C 
ATOM      9  C   UNL     1      19.084  -1.169  53.384  0.00  0.00    +0.000 A 
ATOM     10  C   UNL     1      18.263  -0.686  52.372  0.00  0.00    +0.000 A 
ATOM     11  C   UNL     1      18.758   0.262  51.489  0.00  0.00    +0.000 A 
ATOM     12  C   UNL     1      20.074   0.735  51.621  0.00  0.00    +0.000 A 
ATOM     13  C   UNL     1      20.566   1.716  50.757  0.00  0.00    +0.000 A 
ATOM     14  C   UNL     1      21.872   2.176  50.908  0.00  0.00    +0.000 A 
ATOM     15  C   UNL     1      22.406   3.211  50.002  0.00  0.00    +0.000 A 
ATOM     16  O   UNL     1      21.659   3.725  49.177  0.00  0.00    +0.000 OA
ENDROOT
BRANCH   3  17
ATOM     17  C   UNL     1      25.071   1.549  53.066  0.00  0.00    +0.000 C 
ATOM     18  O   UNL     1      25.774   2.304  53.732  0.00  0.00    +0.000 OA
ATOM     19  N   UNL     1      25.124   0.183  53.186  0.00  0.00    +0.000 N 
ATOM     20  H   UNL     1      24.448  -0.334  52.693  0.00  0.00    +0.000 HD
BRANCH  19  21
ATOM     21  C   UNL     1      26.086  -0.572  53.976  0.00  0.00    +0.000 C 
BRANCH  21  22
ATOM     22  C   UNL     1      27.479  -0.715  53.327  0.00  0.00    +0.000 C 
BRANCH  22  23
ATOM     23  N   UNL     1      28.625  -0.498  54.246  0.00  0.00    +0.000 N 
ATOM     24  C   UNL     1      29.832  -1.129  53.698  0.00  0.00    +0.000 C 
ATOM     25  C   UNL     1      28.890   0.918  54.501  0.00  0.00    +0.000 C 
ATOM     26  H   UNL     1      28.373  -0.926  55.137  0.00  0.00    +0.000 HD
ENDBRANCH  22  23
ENDBRANCH  21  22
ENDBRANCH  19  21
ENDBRANCH   3  17
BRANCH   1  27
ATOM     27  C   UNL     1      24.376   4.428  49.180  0.00  0.00    +0.000 C 
BRANCH  27  28
ATOM     28  C   UNL     1      25.174   5.568  49.834  0.00  0.00    +0.000 C 
BRANCH  28  30
ATOM     29  C   UNL     1      27.285   4.601  48.857  0.00  0.00    +0.000 C 
ATOM     30  C   UNL     1      26.495   5.874  49.121  0.00  0.00    +0.000 C 
ENDBRANCH  28  30
ENDBRANCH  27  28
ENDBRANCH   1  27
TORSDOF 7
ENDMDL
MODEL 4
REMARK VINA RESULT:    -7.892      2.519      3.010
REMARK INTER + INTRA:         -12.229
REMARK INTER:                 -11.266
REMARK INTRA:                  -0.963
REMARK UNBOUND:                -1.108
REMARK  Name = 
REMARK  11 active torsions:
REMARK  status: ('A' for Active; 'I' for Inactive)
REMARK    1  A    between atoms: C_1  and  C_2
REMARK    2  A    between atoms: C_2  and  C_3
REMARK    3  A    between atoms: C_3  and  C_4
REMARK    4  A    between atoms: C_4  and  N_5
REMARK    5  A    between atoms: C_7  and  C_8
REMARK    6  A    between atoms: N_10  and  C_11
REMARK    7  A    between atoms: C_11  and  C_12
REMARK    8  A    between atoms: C_12  and  N_13
REMARK    9  A    between atoms: N_13  and  C_14
REMARK   10  A    between atoms: N_13  and  C_15
REMARK   11  A    between atoms: C_19  and  C_20
REMARK                            x       y       z     vdW  Elec       q    Type
REMARK                         _______ _______ _______ _____ _____    ______ ____
ROOT
ATOM      1  N   UNL     1      25.628   0.307  54.022  0.00  0.00    +0.000 N 
ATOM      2  C   UNL     1      25.524   1.155  52.927  0.00  0.00    +0.000 A 
ATOM      3  C   UNL     1      24.385   1.340  52.233  0.00  0.00    +0.000 A 
ATOM      4  C   UNL     1      23.195   0.589  52.684  0.00  0.00    +0.000 A 
ATOM      5  N   UNL     1      22.024   0.791  52.019  0.00  0.00    +0.000 NA
ATOM      6  C   UNL     1      20.903   0.138  52.420  0.00  0.00    +0.000 A 
ATOM      7  C   UNL     1      19.690   0.306  51.738  0.00  0.00    +0.000 A 
ATOM      8  C   UNL     1      19.572   1.194  50.528  0.00  0.00    +0.000 C 
ATOM      9  C   UNL     1      18.532  -0.374  52.155  0.00  0.00    +0.000 A 
ATOM     10  C   UNL     1      18.562  -1.217  53.260  0.00  0.00    +0.000 A 
ATOM     11  C   UNL     1      19.753  -1.395  53.949  0.00  0.00    +0.000 A 
ATOM     12  C   UNL     1      20.920  -0.736  53.528  0.00  0.00    +0.000 A 
ATOM     13  C   UNL     1      22.130  -0.940  54.195  0.00  0.00    +0.000 A 
ATOM     14  C   UNL     1      23.278  -0.281  53.759  0.00  0.00    +0.000 A 
ATOM     15  C   UNL     1      24.563  -0.486  54.455  0.00  0.00    +0.000 A 
ATOM     16  O   UNL     1      24.627  -1.310  55.360  0.00  0.00    +0.000 OA
ENDROOT
BRANCH   3  17
ATOM     17  C   UNL     1      24.440   2.330  51.092  0.00  0.00    +0.000 C 
ATOM     18  O   UNL     1      25.352   3.144  50.977  0.00  0.00    +0.000 OA
ATOM     19  N   UNL     1      23.397   2.250  50.203  0.00  0.00    +0.000 N 
ATOM     20  H   UNL     1      22.773   1.498  50.315  0.00  0.00    +0.000 HD
BRANCH  19  21
ATOM     21  C   UNL     1      23.129   3.173  49.109  0.00  0.00    +0.000 C 
BRANCH  21  22
ATOM     22  C   UNL     1      22.502   4.516  49.542  0.00  0.00    +0.000 C 
BRANCH  22  23
ATOM     23  N   UNL     1      21.554   4.428  50.682  0.00  0.00    +0.000 N 
ATOM     24  C   UNL     1      22.082   5.174  51.830  0.00  0.00    +0.000 C 
ATOM     25  C   UNL     1      20.218   4.926  50.352  0.00  0.00    +0.000 C 
ATOM     26  H   UNL     1      21.462   3.439  50.912  0.00  0.00    +0.000 HD
ENDBRANCH  22  23
ENDBRANCH  21  22
ENDBRANCH  19  21
ENDBRANCH   3  17
BRANCH   1  27
ATOM     27  C   UNL     1      26.883   0.254  54.778  0.00  0.00    +0.000 C 
BRANCH  27  28
ATOM     28  C   UNL     1      28.126   0.502  53.909  0.00  0.00    +0.000 C 
BRANCH  28  30
ATOM     29  C   UNL     1      30.101  -1.057  53.771  0.00  0.00    +0.000 C 
ATOM     30  C   UNL     1      28.690  -0.774  53.276  0.00  0.00    +0.000 C 
ENDBRANCH  28  30
ENDBRANCH  27  28
ENDBRANCH   1  27
TORSDOF 7
ENDMDL
MODEL 5
REMARK VINA RESULT:    -7.577      2.578      5.667
REMARK INTER + INTRA:         -11.786
REMARK INTER:                 -10.735
REMARK INTRA:                  -1.051
REMARK UNBOUND:                -1.108
REMARK  Name = 
REMARK  11 active torsions:
REMARK  status: ('A' for Active; 'I' for Inactive)
REMARK    1  A    between atoms: C_1  and  C_2
REMARK    2  A    between atoms: C_2  and  C_3
REMARK    3  A    between atoms: C_3  and  C_4
REMARK    4  A    between atoms: C_4  and  N_5
REMARK    5  A    between atoms: C_7  and  C_8
REMARK    6  A    between atoms: N_10  and  C_11
REMARK    7  A    between atoms: C_11  and  C_12
REMARK    8  A    between atoms: C_12  and  N_13
REMARK    9  A    between atoms: N_13  and  C_14
REMARK   10  A    between atoms: N_13  and  C_15
REMARK   11  A    between atoms: C_19  and  C_20
REMARK                            x       y       z     vdW  Elec       q    Type
REMARK                         _______ _______ _______ _____ _____    ______ ____
ROOT
ATOM      1  N   UNL     1      25.511   3.163  50.239  0.00  0.00    +0.000 N 
ATOM      2  C   UNL     1      24.192   3.408  49.878  0.00  0.00    +0.000 A 
ATOM      3  C   UNL     1      23.136   2.805  50.456  0.00  0.00    +0.000 A 
ATOM      4  C   UNL     1      23.425   1.833  51.532  0.00  0.00    +0.000 A 
ATOM      5  N   UNL     1      22.369   1.240  52.156  0.00  0.00    +0.000 NA
ATOM      6  C   UNL     1      22.594   0.362  53.166  0.00  0.00    +0.000 A 
ATOM      7  C   UNL     1      21.528  -0.284  53.809  0.00  0.00    +0.000 A 
ATOM      8  C   UNL     1      20.096  -0.054  53.403  0.00  0.00    +0.000 C 
ATOM      9  C   UNL     1      21.765  -1.194  54.853  0.00  0.00    +0.000 A 
ATOM     10  C   UNL     1      23.060  -1.464  55.281  0.00  0.00    +0.000 A 
ATOM     11  C   UNL     1      24.128  -0.833  54.659  0.00  0.00    +0.000 A 
ATOM     12  C   UNL     1      23.903   0.063  53.601  0.00  0.00    +0.000 A 
ATOM     13  C   UNL     1      24.976   0.672  52.946  0.00  0.00    +0.000 A 
ATOM     14  C   UNL     1      24.732   1.554  51.895  0.00  0.00    +0.000 A 
ATOM     15  C   UNL     1      25.856   2.205  51.196  0.00  0.00    +0.000 A 
ATOM     16  O   UNL     1      27.004   1.892  51.489  0.00  0.00    +0.000 OA
ENDROOT
BRANCH   3  17
ATOM     17  C   UNL     1      21.767   3.219  49.967  0.00  0.00    +0.000 C 
ATOM     18  O   UNL     1      21.503   4.381  49.672  0.00  0.00    +0.000 OA
ATOM     19  N   UNL     1      20.849   2.203  49.881  0.00  0.00    +0.000 N 
ATOM     20  H   UNL     1      21.181   1.288  50.033  0.00  0.00    +0.000 HD
BRANCH  19  21
ATOM     21  C   UNL     1      19.431   2.349  49.585  0.00  0.00    +0.000 C 
BRANCH  21  22
ATOM     22  C   UNL     1      18.517   2.393  50.829  0.00  0.00    +0.000 C 
BRANCH  22  23
ATOM     23  N   UNL     1      18.032   3.746  51.204  0.00  0.00    +0.000 N 
ATOM     24  C   UNL     1      17.996   4.611  50.019  0.00  0.00    +0.000 C 
ATOM     25  C   UNL     1      16.708   3.723  51.828  0.00  0.00    +0.000 C 
ATOM     26  H   UNL     1      18.687   4.113  51.893  0.00  0.00    +0.000 HD
ENDBRANCH  22  23
ENDBRANCH  21  22
ENDBRANCH  19  21
ENDBRANCH   3  17
BRANCH   1  27
ATOM     27  C   UNL     1      26.585   3.948  49.625  0.00  0.00    +0.000 C 
BRANCH  27  28
ATOM     28  C   UNL     1      26.124   5.332  49.138  0.00  0.00    +0.000 C 
BRANCH  28  30
ATOM     29  C   UNL     1      28.519   5.329  48.358  0.00  0.00    +0.000 C 
ATOM     30  C   UNL     1      27.225   6.126  48.428  0.00  0.00    +0.000 C 
ENDBRANCH  28  30
ENDBRANCH  27  28
ENDBRANCH   1  27
TORSDOF 7
ENDMDL
MODEL 6
REMARK VINA RESULT:    -7.517      2.152      6.284
REMARK INTER + INTRA:         -11.701
REMARK INTER:                 -10.577
REMARK INTRA:                  -1.124
REMARK UNBOUND:                -1.108
REMARK  Name = 
REMARK  11 active torsions:
REMARK  status: ('A' for Active; 'I' for Inactive)
REMARK    1  A    between atoms: C_1  and  C_2
REMARK    2  A    between atoms: C_2  and  C_3
REMARK    3  A    between atoms: C_3  and  C_4
REMARK    4  A    between atoms: C_4  and  N_5
REMARK    5  A    between atoms: C_7  and  C_8
REMARK    6  A    between atoms: N_10  and  C_11
REMARK    7  A    between atoms: C_11  and  C_12
REMARK    8  A    between atoms: C_12  and  N_13
REMARK    9  A    between atoms: N_13  and  C_14
REMARK   10  A    between atoms: N_13  and  C_15
REMARK   11  A    between atoms: C_19  and  C_20
REMARK                            x       y       z     vdW  Elec       q    Type
REMARK                         _______ _______ _______ _____ _____    ______ ____
ROOT
ATOM      1  N   UNL     1      22.945   3.612  49.656  0.00  0.00    +0.000 N 
ATOM      2  C   UNL     1      24.218   3.420  50.178  0.00  0.00    +0.000 A 
ATOM      3  C   UNL     1      24.494   2.551  51.169  0.00  0.00    +0.000 A 
ATOM      4  C   UNL     1      23.361   1.771  51.712  0.00  0.00    +0.000 A 
ATOM      5  N   UNL     1      23.625   0.859  52.689  0.00  0.00    +0.000 NA
ATOM      6  C   UNL     1      22.615   0.106  53.194  0.00  0.00    +0.000 A 
ATOM      7  C   UNL     1      22.852  -0.821  54.218  0.00  0.00    +0.000 A 
ATOM      8  C   UNL     1      24.220  -1.014  54.818  0.00  0.00    +0.000 C 
ATOM      9  C   UNL     1      21.803  -1.598  54.740  0.00  0.00    +0.000 A 
ATOM     10  C   UNL     1      20.511  -1.474  54.243  0.00  0.00    +0.000 A 
ATOM     11  C   UNL     1      20.256  -0.563  53.229  0.00  0.00    +0.000 A 
ATOM     12  C   UNL     1      21.294   0.233  52.714  0.00  0.00    +0.000 A 
ATOM     13  C   UNL     1      21.036   1.177  51.718  0.00  0.00    +0.000 A 
ATOM     14  C   UNL     1      22.078   1.960  51.224  0.00  0.00    +0.000 A 
ATOM     15  C   UNL     1      21.821   2.962  50.171  0.00  0.00    +0.000 A 
ATOM     16  O   UNL     1      20.669   3.159  49.803  0.00  0.00    +0.000 OA
ENDROOT
BRANCH   3  17
ATOM     17  C   UNL     1      25.941   2.439  51.590  0.00  0.00    +0.000 C 
ATOM     18  O   UNL     1      26.853   2.350  50.773  0.00  0.00    +0.000 OA
ATOM     19  N   UNL     1      26.154   2.443  52.946  0.00  0.00    +0.000 N 
ATOM     20  H   UNL     1      25.375   2.628  53.518  0.00  0.00    +0.000 HD
BRANCH  19  21
ATOM     21  C   UNL     1      27.423   2.201  53.616  0.00  0.00    +0.000 C 
BRANCH  21  22
ATOM     22  C   UNL     1      27.622   0.752  54.110  0.00  0.00    +0.000 C 
BRANCH  22  23
ATOM     23  N   UNL     1      28.107  -0.202  53.079  0.00  0.00    +0.000 N 
ATOM     24  C   UNL     1      29.184  -1.031  53.632  0.00  0.00    +0.000 C 
ATOM     25  C   UNL     1      27.046  -1.066  52.559  0.00  0.00    +0.000 C 
ATOM     26  H   UNL     1      28.452   0.358  52.300  0.00  0.00    +0.000 HD
ENDBRANCH  22  23
ENDBRANCH  21  22
ENDBRANCH  19  21
ENDBRANCH   3  17
BRANCH   1  27
ATOM     27  C   UNL     1      22.764   4.501  48.505  0.00  0.00    +0.000 C 
BRANCH  27  28
ATOM     28  C   UNL     1      23.786   5.648  48.457  0.00  0.00    +0.000 C 
BRANCH  28  30
ATOM     29  C   UNL     1      24.460   7.658  47.096  0.00  0.00    +0.000 C 
ATOM     30  C   UNL     1      23.295   6.870  47.674  0.00  0.00    +0.000 C 
ENDBRANCH  28  30
ENDBRANCH  27  28
ENDBRANCH   1  27
TORSDOF 7
ENDMDL
MODEL 7
REMARK VINA RESULT:    -7.464      2.775      6.514
REMARK INTER + INTRA:         -11.627
REMARK INTER:                 -10.887
REMARK INTRA:                  -0.740
REMARK UNBOUND:                -1.108
REMARK  Name = 
REMARK  11 active torsions:
REMARK  status: ('A' for Active; 'I' for Inactive)
REMARK    1  A    between atoms: C_1  and  C_2
REMARK    2  A    between atoms: C_2  and  C_3
REMARK    3  A    between atoms: C_3  and  C_4
REMARK    4  A    between atoms: C_4  and  N_5
REMARK    5  A    between atoms: C_7  and  C_8
REMARK    6  A    between atoms: N_10  and  C_11
REMARK    7  A    between atoms: C_11  and  C_12
REMARK    8  A    between atoms: C_12  and  N_13
REMARK    9  A    between atoms: N_13  and  C_14
REMARK   10  A    between atoms: N_13  and  C_15
REMARK   11  A    between atoms: C_19  and  C_20
REMARK                            x       y       z     vdW  Elec       q    Type
REMARK                         _______ _______ _______ _____ _____    ______ ____
ROOT
ATOM      1  N   UNL     1      25.927   0.073  52.782  0.00  0.00    +0.000 N 
ATOM      2  C   UNL     1      24.805  -0.398  53.450  0.00  0.00    +0.000 A 
ATOM      3  C   UNL     1      23.580   0.149  53.329  0.00  0.00    +0.000 A 
ATOM      4  C   UNL     1      23.452   1.313  52.427  0.00  0.00    +0.000 A 
ATOM      5  N   UNL     1      22.215   1.857  52.260  0.00  0.00    +0.000 NA
ATOM      6  C   UNL     1      22.053   2.911  51.419  0.00  0.00    +0.000 A 
ATOM      7  C   UNL     1      20.797   3.509  51.248  0.00  0.00    +0.000 A 
ATOM      8  C   UNL     1      19.579   3.031  51.994  0.00  0.00    +0.000 C 
ATOM      9  C   UNL     1      20.634   4.601  50.378  0.00  0.00    +0.000 A 
ATOM     10  C   UNL     1      21.712   5.104  49.659  0.00  0.00    +0.000 A 
ATOM     11  C   UNL     1      22.963   4.525  49.814  0.00  0.00    +0.000 A 
ATOM     12  C   UNL     1      23.140   3.446  50.695  0.00  0.00    +0.000 A 
ATOM     13  C   UNL     1      24.405   2.883  50.883  0.00  0.00    +0.000 A 
ATOM     14  C   UNL     1      24.561   1.817  51.766  0.00  0.00    +0.000 A 
ATOM     15  C   UNL     1      25.890   1.211  51.973  0.00  0.00    +0.000 A 
ATOM     16  O   UNL     1      26.867   1.715  51.430  0.00  0.00    +0.000 OA
ENDROOT
BRANCH   3  17
ATOM     17  C   UNL     1      22.461  -0.515  54.098  0.00  0.00    +0.000 C 
ATOM     18  O   UNL     1      22.661  -1.127  55.143  0.00  0.00    +0.000 OA
ATOM     19  N   UNL     1      21.214  -0.381  53.540  0.00  0.00    +0.000 N 
ATOM     20  H   UNL     1      21.135   0.218  52.763  0.00  0.00    +0.000 HD
BRANCH  19  21
ATOM     21  C   UNL     1      19.997  -1.041  53.991  0.00  0.00    +0.000 C 
BRANCH  21  22
ATOM     22  C   UNL     1      18.748  -0.738  53.137  0.00  0.00    +0.000 C 
BRANCH  22  23
ATOM     23  N   UNL     1      17.480  -1.319  53.649  0.00  0.00    +0.000 N 
ATOM     24  C   UNL     1      16.346  -0.811  52.869  0.00  0.00    +0.000 C 
ATOM     25  C   UNL     1      17.472  -2.782  53.622  0.00  0.00    +0.000 C 
ATOM     26  H   UNL     1      17.399  -1.032  54.625  0.00  0.00    +0.000 HD
ENDBRANCH  22  23
ENDBRANCH  21  22
ENDBRANCH  19  21
ENDBRANCH   3  17
BRANCH   1  27
ATOM     27  C   UNL     1      27.194  -0.656  52.896  0.00  0.00    +0.000 C 
BRANCH  27  28
ATOM     28  C   UNL     1      27.986  -0.301  54.165  0.00  0.00    +0.000 C 
BRANCH  28  30
ATOM     29  C   UNL     1      30.371  -0.869  53.583  0.00  0.00    +0.000 C 
ATOM     30  C   UNL     1      29.385   0.252  53.874  0.00  0.00    +0.000 C 
ENDBRANCH  28  30
ENDBRANCH  27  28
ENDBRANCH   1  27
TORSDOF 7
ENDMDL
MODEL 8
REMARK VINA RESULT:    -7.382      1.954      3.141
REMARK INTER + INTRA:         -11.510
REMARK INTER:                 -10.649
REMARK INTRA:                  -0.861
REMARK UNBOUND:                -1.108
REMARK  Name = 
REMARK  11 active torsions:
REMARK  status: ('A' for Active; 'I' for Inactive)
REMARK    1  A    between atoms: C_1  and  C_2
REMARK    2  A    between atoms: C_2  and  C_3
REMARK    3  A    between atoms: C_3  and  C_4
REMARK    4  A    between atoms: C_4  and  N_5
REMARK    5  A    between atoms: C_7  and  C_8
REMARK    6  A    between atoms: N_10  and  C_11
REMARK    7  A    between atoms: C_11  and  C_12
REMARK    8  A    between atoms: C_12  and  N_13
REMARK    9  A    between atoms: N_13  and  C_14
REMARK   10  A    between atoms: N_13  and  C_15
REMARK   11  A    between atoms: C_19  and  C_20
REMARK                            x       y       z     vdW  Elec       q    Type
REMARK                         _______ _______ _______ _____ _____    ______ ____
ROOT
ATOM      1  N   UNL     1      24.382   0.777  52.881  0.00  0.00    +0.000 N 
ATOM      2  C   UNL     1      24.081   1.514  51.744  0.00  0.00    +0.000 A 
ATOM      3  C   UNL     1      22.864   1.533  51.167  0.00  0.00    +0.000 A 
ATOM      4  C   UNL     1      21.809   0.715  51.801  0.00  0.00    +0.000 A 
ATOM      5  N   UNL     1      20.562   0.749  51.256  0.00  0.00    +0.000 NA
ATOM      6  C   UNL     1      19.560   0.031  51.826  0.00  0.00    +0.000 A 
ATOM      7  C   UNL     1      18.272   0.026  51.271  0.00  0.00    +0.000 A 
ATOM      8  C   UNL     1      17.942   0.793  50.018  0.00  0.00    +0.000 C 
ATOM      9  C   UNL     1      17.239  -0.720  51.864  0.00  0.00    +0.000 A 
ATOM     10  C   UNL     1      17.467  -1.458  53.019  0.00  0.00    +0.000 A 
ATOM     11  C   UNL     1      18.734  -1.465  53.584  0.00  0.00    +0.000 A 
ATOM     12  C   UNL     1      19.778  -0.739  52.989  0.00  0.00    +0.000 A 
ATOM     13  C   UNL     1      21.065  -0.771  53.532  0.00  0.00    +0.000 A 
ATOM     14  C   UNL     1      22.089  -0.048  52.924  0.00  0.00    +0.000 A 
ATOM     15  C   UNL     1      23.452  -0.072  53.487  0.00  0.00    +0.000 A 
ATOM     16  O   UNL     1      23.692  -0.806  54.440  0.00  0.00    +0.000 OA
ENDROOT
BRANCH   3  17
ATOM     17  C   UNL     1      22.701   2.422  49.956  0.00  0.00    +0.000 C 
ATOM     18  O   UNL     1      22.711   1.975  48.812  0.00  0.00    +0.000 OA
ATOM     19  N   UNL     1      22.542   3.756  50.232  0.00  0.00    +0.000 N 
ATOM     20  H   UNL     1      22.437   4.006  51.178  0.00  0.00    +0.000 HD
BRANCH  19  21
ATOM     21  C   UNL     1      22.514   4.838  49.257  0.00  0.00    +0.000 C 
BRANCH  21  22
ATOM     22  C   UNL     1      23.905   5.353  48.830  0.00  0.00    +0.000 C 
BRANCH  22  23
ATOM     23  N   UNL     1      24.932   5.351  49.903  0.00  0.00    +0.000 N 
ATOM     24  C   UNL     1      26.059   4.496  49.514  0.00  0.00    +0.000 C 
ATOM     25  C   UNL     1      25.426   6.691  50.222  0.00  0.00    +0.000 C 
ATOM     26  H   UNL     1      24.481   4.986  50.741  0.00  0.00    +0.000 HD
ENDBRANCH  22  23
ENDBRANCH  21  22
ENDBRANCH  19  21
ENDBRANCH   3  17
BRANCH   1  27
ATOM     27  C   UNL     1      25.706   0.906  53.497  0.00  0.00    +0.000 C 
BRANCH  27  28
ATOM     28  C   UNL     1      26.828   1.155  52.476  0.00  0.00    +0.000 C 
BRANCH  28  30
ATOM     29  C   UNL     1      28.669   2.417  53.644  0.00  0.00    +0.000 C 
ATOM     30  C   UNL     1      28.232   1.073  53.082  0.00  0.00    +0.000 C 
ENDBRANCH  28  30
ENDBRANCH  27  28
ENDBRANCH   1  27
TORSDOF 7
ENDMDL
MODEL 9
REMARK VINA RESULT:    -6.977      2.393      6.691
REMARK INTER + INTRA:         -10.941
REMARK INTER:                  -9.847
REMARK INTRA:                  -1.093
REMARK UNBOUND:                -1.108
REMARK  Name = 
REMARK  11 active torsions:
REMARK  status: ('A' for Active; 'I' for Inactive)
REMARK    1  A    between atoms: C_1  and  C_2
REMARK    2  A    between atoms: C_2  and  C_3
REMARK    3  A    between atoms: C_3  and  C_4
REMARK    4  A    between atoms: C_4  and  N_5
REMARK    5  A    between atoms: C_7  and  C_8
REMARK    6  A    between atoms: N_10  and  C_11
REMARK    7  A    between atoms: C_11  and  C_12
REMARK    8  A    between atoms: C_12  and  N_13
REMARK    9  A    between atoms: N_13  and  C_14
REMARK   10  A    between atoms: N_13  and  C_15
REMARK   11  A    between atoms: C_19  and  C_20
REMARK                            x       y       z     vdW  Elec       q    Type
REMARK                         _______ _______ _______ _____ _____    ______ ____
ROOT
ATOM      1  N   UNL     1      25.227   5.749  49.170  0.00  0.00    +0.000 N 
ATOM      2  C   UNL     1      23.949   5.773  49.711  0.00  0.00    +0.000 A 
ATOM      3  C   UNL     1      23.464   4.814  50.522  0.00  0.00    +0.000 A 
ATOM      4  C   UNL     1      24.364   3.684  50.837  0.00  0.00    +0.000 A 
ATOM      5  N   UNL     1      23.906   2.722  51.685  0.00  0.00    +0.000 NA
ATOM      6  C   UNL     1      24.713   1.682  52.020  0.00  0.00    +0.000 A 
ATOM      7  C   UNL     1      24.260   0.664  52.869  0.00  0.00    +0.000 A 
ATOM      8  C   UNL     1      22.864   0.660  53.434  0.00  0.00    +0.000 C 
ATOM      9  C   UNL     1      25.098  -0.412  53.211  0.00  0.00    +0.000 A 
ATOM     10  C   UNL     1      26.398  -0.482  52.724  0.00  0.00    +0.000 A 
ATOM     11  C   UNL     1      26.866   0.517  51.883  0.00  0.00    +0.000 A 
ATOM     12  C   UNL     1      26.030   1.586  51.520  0.00  0.00    +0.000 A 
ATOM     13  C   UNL     1      26.483   2.575  50.644  0.00  0.00    +0.000 A 
ATOM     14  C   UNL     1      25.636   3.625  50.292  0.00  0.00    +0.000 A 
ATOM     15  C   UNL     1      26.101   4.677  49.369  0.00  0.00    +0.000 A 
ATOM     16  O   UNL     1      27.205   4.569  48.846  0.00  0.00    +0.000 OA
ENDROOT
BRANCH   3  17
ATOM     17  C   UNL     1      22.064   5.018  51.053  0.00  0.00    +0.000 C 
ATOM     18  O   UNL     1      21.650   6.122  51.395  0.00  0.00    +0.000 OA
ATOM     19  N   UNL     1      21.298   3.882  51.125  0.00  0.00    +0.000 N 
ATOM     20  H   UNL     1      21.675   3.064  50.728  0.00  0.00    +0.000 HD
BRANCH  19  21
ATOM     21  C   UNL     1      19.979   3.772  51.733  0.00  0.00    +0.000 C 
BRANCH  21  22
ATOM     22  C   UNL     1      19.204   2.492  51.358  0.00  0.00    +0.000 C 
BRANCH  22  23
ATOM     23  N   UNL     1      20.004   1.241  51.391  0.00  0.00    +0.000 N 
ATOM     24  C   UNL     1      19.240   0.175  52.048  0.00  0.00    +0.000 C 
ATOM     25  C   UNL     1      20.416   0.794  50.059  0.00  0.00    +0.000 C 
ATOM     26  H   UNL     1      20.852   1.448  51.917  0.00  0.00    +0.000 HD
ENDBRANCH  22  23
ENDBRANCH  21  22
ENDBRANCH  19  21
ENDBRANCH   3  17
BRANCH   1  27
ATOM     27  C   UNL     1      25.701   6.893  48.386  0.00  0.00    +0.000 C 
BRANCH  27  28
ATOM     28  C   UNL     1      26.063   8.113  49.249  0.00  0.00    +0.000 C 
BRANCH  28  30
ATOM     29  C   UNL     1      28.327   7.890  48.167  0.00  0.00    +0.000 C 
ATOM     30  C   UNL     1      27.572   8.313  49.418  0.00  0.00    +0.000 C 
ENDBRANCH  28  30
ENDBRANCH  27  28
ENDBRANCH   1  27
TORSDOF 7
ENDMDL
