MODEL 1
REMARK VINA RESULT:    -7.685      0.000      0.000
REMARK INTER + INTRA:         -13.825
REMARK INTER:                 -11.729
REMARK INTRA:                  -2.096
REMARK UNBOUND:                -2.096
REMARK  Name = 
REMARK  11 active torsions:
REMARK  status: ('A' for Active; 'I' for Inactive)
REMARK    1  A    between atoms: C_1  and  C_2
REMARK    2  A    between atoms: C_2  and  C_3
REMARK    3  A    between atoms: C_3  and  C_4
REMARK    4  A    between atoms: C_4  and  C_5
REMARK    5  A    between atoms: C_5  and  C_6
REMARK    6  A    between atoms: C_6  and  N_7
REMARK    7  A    between atoms: C_9  and  C_10
REMARK    8  A    between atoms: C_19  and  C_20
REMARK    9  A    between atoms: C_23  and  C_24
REMARK   10  A    between atoms: C_27  and  O_28
REMARK   11  A    between atoms: O_28  and  C_29
REMARK                            x       y       z     vdW  Elec       q    Type
REMARK                         _______ _______ _______ _____ _____    ______ ____
ROOT
ATOM      1  N   UNL     1      23.205   2.102  49.557  0.00  0.00    +0.000 N 
ATOM      2  C   UNL     1      22.017   1.227  49.486  0.00  0.00    +0.000 C 
ATOM      3  C   UNL     1      20.987   1.936  50.358  0.00  0.00    +0.000 C 
ATOM      4  C   UNL     1      21.837   2.353  51.562  0.00  0.00    +0.000 C 
ATOM      5  C   UNL     1      23.261   2.546  50.984  0.00  0.00    +0.000 C 
ATOM      6  H   UNL     1      24.073   1.630  49.302  0.00  0.00    +0.000 HD
ENDROOT
BRANCH   3   7
ATOM      7  C   UNL     1      19.741   1.129  50.641  0.00  0.00    +0.000 A 
ATOM      8  C   UNL     1      18.593   1.185  49.820  0.00  0.00    +0.000 A 
ATOM      9  C   UNL     1      17.444   0.451  50.140  0.00  0.00    +0.000 A 
ATOM     10  C   UNL     1      17.465  -0.319  51.283  0.00  0.00    +0.000 A 
ATOM     11  C   UNL     1      18.577  -0.386  52.085  0.00  0.00    +0.000 A 
ATOM     12  C   UNL     1      19.724   0.316  51.790  0.00  0.00    +0.000 A 
ATOM     13  O   UNL     1      18.398  -1.190  53.165  0.00  0.00    +0.000 OA
ATOM     14  C   UNL     1      17.029  -1.599  52.969  0.00  0.00    +0.000 C 
ATOM     15  O   UNL     1      16.440  -1.076  51.760  0.00  0.00    +0.000 OA
ENDBRANCH   3   7
BRANCH   5  16
ATOM     16  C   UNL     1      24.315   1.741  51.758  0.00  0.00    +0.000 A 
ATOM     17  C   UNL     1      23.949   0.802  52.738  0.00  0.00    +0.000 A 
ATOM     18  C   UNL     1      24.903   0.052  53.427  0.00  0.00    +0.000 A 
ATOM     19  C   UNL     1      26.252   0.218  53.154  0.00  0.00    +0.000 A 
ATOM     20  C   UNL     1      26.640   1.143  52.181  0.00  0.00    +0.000 A 
ATOM     21  C   UNL     1      25.683   1.893  51.484  0.00  0.00    +0.000 A 
BRANCH  19  22
ATOM     22  O   UNL     1      27.274  -0.454  53.769  0.00  0.00    +0.000 OA
ATOM     23  C   UNL     1      28.093   0.319  54.643  0.00  0.00    +0.000 C 
ENDBRANCH  19  22
ENDBRANCH   5  16
BRANCH   4  24
ATOM     24  C   UNL     1      21.337   3.644  52.153  0.00  0.00    +0.000 C 
ATOM     25  O   UNL     1      20.187   4.050  52.175  0.00  0.00    +0.000 OA
ATOM     26  O   UNL     1      22.326   4.395  52.676  0.00  0.00    +0.000 OA
ENDBRANCH   4  24
BRANCH   1  27
ATOM     27  C   UNL     1      23.120   3.199  48.577  0.00  0.00    +0.000 C 
BRANCH  27  28
ATOM     28  C   UNL     1      23.297   4.622  49.129  0.00  0.00    +0.000 C 
BRANCH  28  29
ATOM     29  C   UNL     1      24.592   5.349  48.755  0.00  0.00    +0.000 C 
BRANCH  29  30
ATOM     30  C   UNL     1      25.774   5.152  49.707  0.00  0.00    +0.000 C 
BRANCH  30  32
ATOM     31  C   UNL     1      27.981   5.150  48.486  0.00  0.00    +0.000 C 
ATOM     32  C   UNL     1      26.898   4.293  49.124  0.00  0.00    +0.000 C 
ENDBRANCH  30  32
ENDBRANCH  29  30
ENDBRANCH  28  29
ENDBRANCH  27  28
ENDBRANCH   1  27
TORSDOF 9
ENDMDL
MODEL 2
REMARK VINA RESULT:    -7.623      2.799      7.042
REMARK INTER + INTRA:         -13.730
REMARK INTER:                 -11.440
REMARK INTRA:                  -2.289
REMARK UNBOUND:                -2.096
REMARK  Name = 
REMARK  11 active torsions:
REMARK  status: ('A' for Active; 'I' for Inactive)
REMARK    1  A    between atoms: C_1  and  C_2
REMARK    2  A    between atoms: C_2  and  C_3
REMARK    3  A    between atoms: C_3  and  C_4
REMARK    4  A    between atoms: C_4  and  C_5
REMARK    5  A    between atoms: C_5  and  C_6
REMARK    6  A    between atoms: C_6  and  N_7
REMARK    7  A    between atoms: C_9  and  C_10
REMARK    8  A    between atoms: C_19  and  C_20
REMARK    9  A    between atoms: C_23  and  C_24
REMARK   10  A    between atoms: C_27  and  O_28
REMARK   11  A    between atoms: O_28  and  C_29
REMARK                            x       y       z     vdW  Elec       q    Type
REMARK                         _______ _______ _______ _____ _____    ______ ____
ROOT
ATOM      1  N   UNL     1      22.490   2.890  52.552  0.00  0.00    +0.000 N 
ATOM      2  C   UNL     1      22.881   4.313  52.465  0.00  0.00    +0.000 C 
ATOM      3  C   UNL     1      22.870   4.605  50.969  0.00  0.00    +0.000 C 
ATOM      4  C   UNL     1      23.554   3.356  50.406  0.00  0.00    +0.000 C 
ATOM      5  C   UNL     1      23.206   2.233  51.415  0.00  0.00    +0.000 C 
ATOM      6  H   UNL     1      22.754   2.450  53.434  0.00  0.00    +0.000 HD
ENDROOT
BRANCH   3   7
ATOM      7  C   UNL     1      23.457   5.944  50.587  0.00  0.00    +0.000 A 
ATOM      8  C   UNL     1      22.663   7.094  50.382  0.00  0.00    +0.000 A 
ATOM      9  C   UNL     1      23.243   8.307  49.988  0.00  0.00    +0.000 A 
ATOM     10  C   UNL     1      24.608   8.340  49.799  0.00  0.00    +0.000 A 
ATOM     11  C   UNL     1      25.390   7.231  50.001  0.00  0.00    +0.000 A 
ATOM     12  C   UNL     1      24.849   6.028  50.398  0.00  0.00    +0.000 A 
ATOM     13  O   UNL     1      26.706   7.464  49.756  0.00  0.00    +0.000 OA
ATOM     14  C   UNL     1      26.660   8.844  49.343  0.00  0.00    +0.000 C 
ATOM     15  O   UNL     1      25.336   9.418  49.399  0.00  0.00    +0.000 OA
ENDBRANCH   3   7
BRANCH   5  16
ATOM     16  C   UNL     1      24.455   1.497  51.917  0.00  0.00    +0.000 A 
ATOM     17  C   UNL     1      24.359   0.383  52.769  0.00  0.00    +0.000 A 
ATOM     18  C   UNL     1      25.492  -0.304  53.209  0.00  0.00    +0.000 A 
ATOM     19  C   UNL     1      26.755   0.104  52.808  0.00  0.00    +0.000 A 
ATOM     20  C   UNL     1      26.875   1.206  51.958  0.00  0.00    +0.000 A 
ATOM     21  C   UNL     1      25.738   1.893  51.510  0.00  0.00    +0.000 A 
BRANCH  19  22
ATOM     22  O   UNL     1      27.934  -0.485  53.179  0.00  0.00    +0.000 OA
ATOM     23  C   UNL     1      28.534   0.017  54.370  0.00  0.00    +0.000 C 
ENDBRANCH  19  22
ENDBRANCH   5  16
BRANCH   4  24
ATOM     24  C   UNL     1      23.014   3.015  49.043  0.00  0.00    +0.000 C 
ATOM     25  O   UNL     1      23.013   3.723  48.050  0.00  0.00    +0.000 OA
ATOM     26  O   UNL     1      22.465   1.786  48.992  0.00  0.00    +0.000 OA
ENDBRANCH   4  24
BRANCH   1  27
ATOM     27  C   UNL     1      21.026   2.736  52.525  0.00  0.00    +0.000 C 
BRANCH  27  28
ATOM     28  C   UNL     1      20.484   1.480  51.824  0.00  0.00    +0.000 C 
BRANCH  28  29
ATOM     29  C   UNL     1      20.419   0.199  52.660  0.00  0.00    +0.000 C 
BRANCH  29  30
ATOM     30  C   UNL     1      20.439   0.386  54.179  0.00  0.00    +0.000 C 
BRANCH  30  32
ATOM     31  C   UNL     1      21.640  -1.815  54.453  0.00  0.00    +0.000 C 
ATOM     32  C   UNL     1      21.582  -0.356  54.876  0.00  0.00    +0.000 C 
ENDBRANCH  30  32
ENDBRANCH  29  30
ENDBRANCH  28  29
ENDBRANCH  27  28
ENDBRANCH   1  27
TORSDOF 9
ENDMDL
MODEL 3
REMARK VINA RESULT:    -7.592      2.628      7.186
REMARK INTER + INTRA:         -13.683
REMARK INTER:                 -11.347
REMARK INTRA:                  -2.336
REMARK UNBOUND:                -2.096
REMARK  Name = 
REMARK  11 active torsions:
REMARK  status: ('A' for Active; 'I' for Inactive)
REMARK    1  A    between atoms: C_1  and  C_2
REMARK    2  A    between atoms: C_2  and  C_3
REMARK    3  A    between atoms: C_3  and  C_4
REMARK    4  A    between atoms: C_4  and  C_5
REMARK    5  A    between atoms: C_5  and  C_6
REMARK    6  A    between atoms: C_6  and  N_7
REMARK    7  A    between atoms: C_9  and  C_10
REMARK    8  A    between atoms: C_19  and  C_20
REMARK    9  A    between atoms: C_23  and  C_24
REMARK   10  A    between atoms: C_27  and  O_28
REMARK   11  A    between atoms: O_28  and  C_29
REMARK                            x       y       z     vdW  Elec       q    Type
REMARK                         _______ _______ _______ _____ _____    ______ ____
ROOT
ATOM      1  N   UNL     1      23.318   3.307  49.310  0.00  0.00    +0.000 N 
ATOM      2  C   UNL     1      24.166   2.266  49.927  0.00  0.00    +0.000 C 
ATOM      3  C   UNL     1      24.079   2.561  51.420  0.00  0.00    +0.000 C 
ATOM      4  C   UNL     1      24.215   4.087  51.442  0.00  0.00    +0.000 C 
ATOM      5  C   UNL     1      23.620   4.549  50.088  0.00  0.00    +0.000 C 
ATOM      6  H   UNL     1      23.515   3.457  48.320  0.00  0.00    +0.000 HD
ENDROOT
BRANCH   3   7
ATOM      7  C   UNL     1      25.045   1.771  52.272  0.00  0.00    +0.000 A 
ATOM      8  C   UNL     1      24.655   0.633  53.013  0.00  0.00    +0.000 A 
ATOM      9  C   UNL     1      25.574  -0.046  53.823  0.00  0.00    +0.000 A 
ATOM     10  C   UNL     1      26.865   0.434  53.882  0.00  0.00    +0.000 A 
ATOM     11  C   UNL     1      27.256   1.534  53.162  0.00  0.00    +0.000 A 
ATOM     12  C   UNL     1      26.379   2.217  52.350  0.00  0.00    +0.000 A 
ATOM     13  O   UNL     1      28.562   1.854  53.360  0.00  0.00    +0.000 OA
ATOM     14  C   UNL     1      28.942   0.843  54.315  0.00  0.00    +0.000 C 
ATOM     15  O   UNL     1      27.879  -0.082  54.628  0.00  0.00    +0.000 OA
ENDBRANCH   3   7
BRANCH   5  16
ATOM     16  C   UNL     1      24.586   5.452  49.309  0.00  0.00    +0.000 A 
ATOM     17  C   UNL     1      24.117   6.481  48.473  0.00  0.00    +0.000 A 
ATOM     18  C   UNL     1      24.992   7.320  47.782  0.00  0.00    +0.000 A 
ATOM     19  C   UNL     1      26.363   7.154  47.908  0.00  0.00    +0.000 A 
ATOM     20  C   UNL     1      26.852   6.142  48.736  0.00  0.00    +0.000 A 
ATOM     21  C   UNL     1      25.974   5.302  49.436  0.00  0.00    +0.000 A 
BRANCH  19  22
ATOM     22  O   UNL     1      27.314   7.909  47.275  0.00  0.00    +0.000 OA
ATOM     23  C   UNL     1      28.659   7.458  47.409  0.00  0.00    +0.000 C 
ENDBRANCH  19  22
ENDBRANCH   5  16
BRANCH   4  24
ATOM     24  C   UNL     1      23.431   4.680  52.582  0.00  0.00    +0.000 C 
ATOM     25  O   UNL     1      23.836   4.928  53.706  0.00  0.00    +0.000 OA
ATOM     26  O   UNL     1      22.144   4.915  52.264  0.00  0.00    +0.000 OA
ENDBRANCH   4  24
BRANCH   1  27
ATOM     27  C   UNL     1      21.899   2.912  49.313  0.00  0.00    +0.000 C 
BRANCH  27  28
ATOM     28  C   UNL     1      21.609   1.407  49.199  0.00  0.00    +0.000 C 
BRANCH  28  29
ATOM     29  C   UNL     1      20.626   0.817  50.214  0.00  0.00    +0.000 C 
BRANCH  29  30
ATOM     30  C   UNL     1      21.238   0.275  51.507  0.00  0.00    +0.000 C 
BRANCH  30  32
ATOM     31  C   UNL     1      21.053   0.320  54.022  0.00  0.00    +0.000 C 
ATOM     32  C   UNL     1      20.931   1.129  52.740  0.00  0.00    +0.000 C 
ENDBRANCH  30  32
ENDBRANCH  29  30
ENDBRANCH  28  29
ENDBRANCH  27  28
ENDBRANCH   1  27
TORSDOF 9
ENDMDL
MODEL 4
REMARK VINA RESULT:    -7.342      2.929      7.679
REMARK INTER + INTRA:         -13.301
REMARK INTER:                 -11.116
REMARK INTRA:                  -2.184
REMARK UNBOUND:                -2.096
REMARK  Name = 
REMARK  11 active torsions:
REMARK  status: ('A' for Active; 'I' for Inactive)
REMARK    1  A    between atoms: C_1  and  C_2
REMARK    2  A    between atoms: C_2  and  C_3
REMARK    3  A    between atoms: C_3  and  C_4
REMARK    4  A    between atoms: C_4  and  C_5
REMARK    5  A    between atoms: C_5  and  C_6
REMARK    6  A    between atoms: C_6  and  N_7
REMARK    7  A    between atoms: C_9  and  C_10
REMARK    8  A    between atoms: C_19  and  C_20
REMARK    9  A    between atoms: C_23  and  C_24
REMARK   10  A    between atoms: C_27  and  O_28
REMARK   11  A    between atoms: O_28  and  C_29
REMARK                            x       y       z     vdW  Elec       q    Type
REMARK                         _______ _______ _______ _____ _____    ______ ____
ROOT
ATOM      1  N   UNL     1      23.181   4.334  52.196  0.00  0.00    +0.000 N 
ATOM      2  C   UNL     1      24.233   5.333  51.915  0.00  0.00    +0.000 C 
ATOM      3  C   UNL     1      24.265   5.414  50.393  0.00  0.00    +0.000 C 
ATOM      4  C   UNL     1      24.178   3.935  50.004  0.00  0.00    +0.000 C 
ATOM      5  C   UNL     1      23.380   3.276  51.158  0.00  0.00    +0.000 C 
ATOM      6  H   UNL     1      23.247   3.926  53.129  0.00  0.00    +0.000 HD
ENDROOT
BRANCH   3   7
ATOM      7  C   UNL     1      25.422   6.208  49.832  0.00  0.00    +0.000 A 
ATOM      8  C   UNL     1      26.297   5.690  48.851  0.00  0.00    +0.000 A 
ATOM      9  C   UNL     1      27.383   6.445  48.388  0.00  0.00    +0.000 A 
ATOM     10  C   UNL     1      27.574   7.700  48.923  0.00  0.00    +0.000 A 
ATOM     11  C   UNL     1      26.727   8.215  49.871  0.00  0.00    +0.000 A 
ATOM     12  C   UNL     1      25.646   7.502  50.339  0.00  0.00    +0.000 A 
ATOM     13  O   UNL     1      27.088   9.460  50.278  0.00  0.00    +0.000 OA
ATOM     14  C   UNL     1      28.284   9.660  49.497  0.00  0.00    +0.000 C 
ATOM     15  O   UNL     1      28.582   8.560  48.610  0.00  0.00    +0.000 OA
ENDBRANCH   3   7
BRANCH   5  16
ATOM     16  C   UNL     1      24.115   2.067  51.753  0.00  0.00    +0.000 A 
ATOM     17  C   UNL     1      25.460   1.800  51.446  0.00  0.00    +0.000 A 
ATOM     18  C   UNL     1      26.139   0.716  52.004  0.00  0.00    +0.000 A 
ATOM     19  C   UNL     1      25.490  -0.134  52.887  0.00  0.00    +0.000 A 
ATOM     20  C   UNL     1      24.154   0.114  53.212  0.00  0.00    +0.000 A 
ATOM     21  C   UNL     1      23.473   1.207  52.657  0.00  0.00    +0.000 A 
BRANCH  19  22
ATOM     22  O   UNL     1      26.049  -1.229  53.489  0.00  0.00    +0.000 OA
ATOM     23  C   UNL     1      27.055  -1.907  52.740  0.00  0.00    +0.000 C 
ENDBRANCH  19  22
ENDBRANCH   5  16
BRANCH   4  24
ATOM     24  C   UNL     1      23.443   3.764  48.701  0.00  0.00    +0.000 C 
ATOM     25  O   UNL     1      22.931   4.638  48.023  0.00  0.00    +0.000 OA
ATOM     26  O   UNL     1      23.360   2.476  48.316  0.00  0.00    +0.000 OA
ENDBRANCH   4  24
BRANCH   1  27
ATOM     27  C   UNL     1      21.844   4.951  52.193  0.00  0.00    +0.000 C 
BRANCH  27  28
ATOM     28  C   UNL     1      20.740   4.185  51.446  0.00  0.00    +0.000 C 
BRANCH  28  29
ATOM     29  C   UNL     1      20.024   3.077  52.224  0.00  0.00    +0.000 C 
BRANCH  29  30
ATOM     30  C   UNL     1      19.331   2.003  51.381  0.00  0.00    +0.000 C 
BRANCH  30  32
ATOM     31  C   UNL     1      20.960   0.698  49.965  0.00  0.00    +0.000 C 
ATOM     32  C   UNL     1      20.138   0.710  51.245  0.00  0.00    +0.000 C 
ENDBRANCH  30  32
ENDBRANCH  29  30
ENDBRANCH  28  29
ENDBRANCH  27  28
ENDBRANCH   1  27
TORSDOF 9
ENDMDL
MODEL 5
REMARK VINA RESULT:    -7.341      2.902      6.354
REMARK INTER + INTRA:         -13.300
REMARK INTER:                 -10.849
REMARK INTRA:                  -2.451
REMARK UNBOUND:                -2.096
REMARK  Name = 
REMARK  11 active torsions:
REMARK  status: ('A' for Active; 'I' for Inactive)
REMARK    1  A    between atoms: C_1  and  C_2
REMARK    2  A    between atoms: C_2  and  C_3
REMARK    3  A    between atoms: C_3  and  C_4
REMARK    4  A    between atoms: C_4  and  C_5
REMARK    5  A    between atoms: C_5  and  C_6
REMARK    6  A    between atoms: C_6  and  N_7
REMARK    7  A    between atoms: C_9  and  C_10
REMARK    8  A    between atoms: C_19  and  C_20
REMARK    9  A    between atoms: C_23  and  C_24
REMARK   10  A    between atoms: C_27  and  O_28
REMARK   11  A    between atoms: O_28  and  C_29
REMARK                            x       y       z     vdW  Elec       q    Type
REMARK                         _______ _______ _______ _____ _____    ______ ____
ROOT
ATOM      1  N   UNL     1      23.603   4.235  48.675  0.00  0.00    +0.000 N 
ATOM      2  C   UNL     1      23.853   2.894  49.245  0.00  0.00    +0.000 C 
ATOM      3  C   UNL     1      23.728   3.107  50.749  0.00  0.00    +0.000 C 
ATOM      4  C   UNL     1      24.494   4.420  50.939  0.00  0.00    +0.000 C 
ATOM      5  C   UNL     1      24.311   5.174  49.599  0.00  0.00    +0.000 C 
ATOM      6  H   UNL     1      23.957   4.344  47.725  0.00  0.00    +0.000 HD
ENDROOT
BRANCH   3   7
ATOM      7  C   UNL     1      24.164   1.927  51.587  0.00  0.00    +0.000 A 
ATOM      8  C   UNL     1      23.268   1.196  52.398  0.00  0.00    +0.000 A 
ATOM      9  C   UNL     1      23.721   0.134  53.192  0.00  0.00    +0.000 A 
ATOM     10  C   UNL     1      25.066  -0.169  53.163  0.00  0.00    +0.000 A 
ATOM     11  C   UNL     1      25.944   0.531  52.374  0.00  0.00    +0.000 A 
ATOM     12  C   UNL     1      25.526   1.572  51.576  0.00  0.00    +0.000 A 
ATOM     13  O   UNL     1      27.223   0.087  52.490  0.00  0.00    +0.000 OA
ATOM     14  C   UNL     1      27.055  -0.956  53.471  0.00  0.00    +0.000 C 
ATOM     15  O   UNL     1      25.683  -1.146  53.880  0.00  0.00    +0.000 OA
ENDBRANCH   3   7
BRANCH   5  16
ATOM     16  C   UNL     1      25.651   5.617  48.996  0.00  0.00    +0.000 A 
ATOM     17  C   UNL     1      25.807   6.880  48.399  0.00  0.00    +0.000 A 
ATOM     18  C   UNL     1      27.029   7.296  47.870  0.00  0.00    +0.000 A 
ATOM     19  C   UNL     1      28.134   6.459  47.925  0.00  0.00    +0.000 A 
ATOM     20  C   UNL     1      28.005   5.201  48.518  0.00  0.00    +0.000 A 
ATOM     21  C   UNL     1      26.778   4.784  49.054  0.00  0.00    +0.000 A 
BRANCH  19  22
ATOM     22  O   UNL     1      29.378   6.755  47.435  0.00  0.00    +0.000 OA
ATOM     23  C   UNL     1      30.478   6.380  48.260  0.00  0.00    +0.000 C 
ENDBRANCH  19  22
ENDBRANCH   5  16
BRANCH   4  24
ATOM     24  C   UNL     1      23.910   5.223  52.071  0.00  0.00    +0.000 C 
ATOM     25  O   UNL     1      23.542   4.809  53.157  0.00  0.00    +0.000 OA
ATOM     26  O   UNL     1      23.789   6.531  51.773  0.00  0.00    +0.000 OA
ENDBRANCH   4  24
BRANCH   1  27
ATOM     27  C   UNL     1      22.160   4.492  48.527  0.00  0.00    +0.000 C 
BRANCH  27  28
ATOM     28  C   UNL     1      21.636   5.805  49.129  0.00  0.00    +0.000 C 
BRANCH  28  29
ATOM     29  C   UNL     1      20.458   5.693  50.101  0.00  0.00    +0.000 C 
BRANCH  29  30
ATOM     30  C   UNL     1      20.529   4.549  51.116  0.00  0.00    +0.000 C 
BRANCH  30  32
ATOM     31  C   UNL     1      20.111   2.124  50.564  0.00  0.00    +0.000 C 
ATOM     32  C   UNL     1      19.473   3.464  50.896  0.00  0.00    +0.000 C 
ENDBRANCH  30  32
ENDBRANCH  29  30
ENDBRANCH  28  29
ENDBRANCH  27  28
ENDBRANCH   1  27
TORSDOF 9
ENDMDL
MODEL 6
REMARK VINA RESULT:    -7.341      2.821      7.325
REMARK INTER + INTRA:         -13.299
REMARK INTER:                 -11.139
REMARK INTRA:                  -2.160
REMARK UNBOUND:                -2.096
REMARK  Name = 
REMARK  11 active torsions:
REMARK  status: ('A' for Active; 'I' for Inactive)
REMARK    1  A    between atoms: C_1  and  C_2
REMARK    2  A    between atoms: C_2  and  C_3
REMARK    3  A    between atoms: C_3  and  C_4
REMARK    4  A    between atoms: C_4  and  C_5
REMARK    5  A    between atoms: C_5  and  C_6
REMARK    6  A    between atoms: C_6  and  N_7
REMARK    7  A    between atoms: C_9  and  C_10
REMARK    8  A    between atoms: C_19  and  C_20
REMARK    9  A    between atoms: C_23  and  C_24
REMARK   10  A    between atoms: C_27  and  O_28
REMARK   11  A    between atoms: O_28  and  C_29
REMARK                            x       y       z     vdW  Elec       q    Type
REMARK                         _______ _______ _______ _____ _____    ______ ____
ROOT
ATOM      1  N   UNL     1      21.381   3.700  51.662  0.00  0.00    +0.000 N 
ATOM      2  C   UNL     1      22.662   4.386  51.391  0.00  0.00    +0.000 C 
ATOM      3  C   UNL     1      23.053   3.896  50.001  0.00  0.00    +0.000 C 
ATOM      4  C   UNL     1      22.734   2.401  50.100  0.00  0.00    +0.000 C 
ATOM      5  C   UNL     1      21.573   2.318  51.122  0.00  0.00    +0.000 C 
ATOM      6  H   UNL     1      21.144   3.660  52.653  0.00  0.00    +0.000 HD
ENDROOT
BRANCH   3   7
ATOM      7  C   UNL     1      24.452   4.275  49.573  0.00  0.00    +0.000 A 
ATOM      8  C   UNL     1      25.549   3.393  49.684  0.00  0.00    +0.000 A 
ATOM      9  C   UNL     1      26.838   3.799  49.314  0.00  0.00    +0.000 A 
ATOM     10  C   UNL     1      27.003   5.086  48.849  0.00  0.00    +0.000 A 
ATOM     11  C   UNL     1      25.944   5.950  48.732  0.00  0.00    +0.000 A 
ATOM     12  C   UNL     1      24.664   5.576  49.078  0.00  0.00    +0.000 A 
ATOM     13  O   UNL     1      26.311   7.171  48.263  0.00  0.00    +0.000 OA
ATOM     14  C   UNL     1      27.734   6.988  48.128  0.00  0.00    +0.000 C 
ATOM     15  O   UNL     1      28.178   5.656  48.467  0.00  0.00    +0.000 OA
ENDBRANCH   3   7
BRANCH   5  16
ATOM     16  C   UNL     1      21.871   1.331  52.260  0.00  0.00    +0.000 A 
ATOM     17  C   UNL     1      20.897   0.998  53.218  0.00  0.00    +0.000 A 
ATOM     18  C   UNL     1      21.157   0.084  54.239  0.00  0.00    +0.000 A 
ATOM     19  C   UNL     1      22.399  -0.526  54.331  0.00  0.00    +0.000 A 
ATOM     20  C   UNL     1      23.381  -0.215  53.388  0.00  0.00    +0.000 A 
ATOM     21  C   UNL     1      23.119   0.699  52.357  0.00  0.00    +0.000 A 
BRANCH  19  22
ATOM     22  O   UNL     1      22.769  -1.430  55.291  0.00  0.00    +0.000 OA
ATOM     23  C   UNL     1      24.135  -1.385  55.696  0.00  0.00    +0.000 C 
ENDBRANCH  19  22
ENDBRANCH   5  16
BRANCH   4  24
ATOM     24  C   UNL     1      22.293   1.856  48.768  0.00  0.00    +0.000 C 
ATOM     25  O   UNL     1      22.881   1.944  47.703  0.00  0.00    +0.000 OA
ATOM     26  O   UNL     1      21.098   1.236  48.828  0.00  0.00    +0.000 OA
ENDBRANCH   4  24
BRANCH   1  27
ATOM     27  C   UNL     1      20.248   4.435  51.076  0.00  0.00    +0.000 C 
BRANCH  27  28
ATOM     28  C   UNL     1      18.884   3.727  51.111  0.00  0.00    +0.000 C 
BRANCH  28  29
ATOM     29  C   UNL     1      18.306   3.280  49.765  0.00  0.00    +0.000 C 
BRANCH  29  30
ATOM     30  C   UNL     1      17.698   1.876  49.727  0.00  0.00    +0.000 C 
BRANCH  30  32
ATOM     31  C   UNL     1      17.386  -0.303  50.959  0.00  0.00    +0.000 C 
ATOM     32  C   UNL     1      18.258   0.933  50.794  0.00  0.00    +0.000 C 
ENDBRANCH  30  32
ENDBRANCH  29  30
ENDBRANCH  28  29
ENDBRANCH  27  28
ENDBRANCH   1  27
TORSDOF 9
ENDMDL
MODEL 7
REMARK VINA RESULT:    -7.154      1.856      6.409
REMARK INTER + INTRA:         -13.013
REMARK INTER:                 -10.905
REMARK INTRA:                  -2.108
REMARK UNBOUND:                -2.096
REMARK  Name = 
REMARK  11 active torsions:
REMARK  status: ('A' for Active; 'I' for Inactive)
REMARK    1  A    between atoms: C_1  and  C_2
REMARK    2  A    between atoms: C_2  and  C_3
REMARK    3  A    between atoms: C_3  and  C_4
REMARK    4  A    between atoms: C_4  and  C_5
REMARK    5  A    between atoms: C_5  and  C_6
REMARK    6  A    between atoms: C_6  and  N_7
REMARK    7  A    between atoms: C_9  and  C_10
REMARK    8  A    between atoms: C_19  and  C_20
REMARK    9  A    between atoms: C_23  and  C_24
REMARK   10  A    between atoms: C_27  and  O_28
REMARK   11  A    between atoms: O_28  and  C_29
REMARK                            x       y       z     vdW  Elec       q    Type
REMARK                         _______ _______ _______ _____ _____    ______ ____
ROOT
ATOM      1  N   UNL     1      20.747   3.515  51.546  0.00  0.00    +0.000 N 
ATOM      2  C   UNL     1      22.063   3.262  52.169  0.00  0.00    +0.000 C 
ATOM      3  C   UNL     1      22.923   2.755  51.017  0.00  0.00    +0.000 C 
ATOM      4  C   UNL     1      21.960   1.793  50.315  0.00  0.00    +0.000 C 
ATOM      5  C   UNL     1      20.553   2.373  50.601  0.00  0.00    +0.000 C 
ATOM      6  H   UNL     1      19.980   3.549  52.218  0.00  0.00    +0.000 HD
ENDROOT
BRANCH   3   7
ATOM      7  C   UNL     1      24.267   2.205  51.432  0.00  0.00    +0.000 A 
ATOM      8  C   UNL     1      25.488   2.805  51.052  0.00  0.00    +0.000 A 
ATOM      9  C   UNL     1      26.714   2.238  51.425  0.00  0.00    +0.000 A 
ATOM     10  C   UNL     1      26.691   1.075  52.164  0.00  0.00    +0.000 A 
ATOM     11  C   UNL     1      25.512   0.487  52.544  0.00  0.00    +0.000 A 
ATOM     12  C   UNL     1      24.292   1.026  52.202  0.00  0.00    +0.000 A 
ATOM     13  O   UNL     1      25.700  -0.653  53.259  0.00  0.00    +0.000 OA
ATOM     14  C   UNL     1      27.139  -0.734  53.259  0.00  0.00    +0.000 C 
ATOM     15  O   UNL     1      27.778   0.377  52.593  0.00  0.00    +0.000 OA
ENDBRANCH   3   7
BRANCH   5  16
ATOM     16  C   UNL     1      19.606   1.327  51.206  0.00  0.00    +0.000 A 
ATOM     17  C   UNL     1      18.307   1.135  50.706  0.00  0.00    +0.000 A 
ATOM     18  C   UNL     1      17.451   0.169  51.238  0.00  0.00    +0.000 A 
ATOM     19  C   UNL     1      17.874  -0.636  52.286  0.00  0.00    +0.000 A 
ATOM     20  C   UNL     1      19.163  -0.467  52.796  0.00  0.00    +0.000 A 
ATOM     21  C   UNL     1      20.025   0.499  52.259  0.00  0.00    +0.000 A 
BRANCH  19  22
ATOM     22  O   UNL     1      17.123  -1.608  52.891  0.00  0.00    +0.000 OA
ATOM     23  C   UNL     1      17.847  -2.572  53.652  0.00  0.00    +0.000 C 
ENDBRANCH  19  22
ENDBRANCH   5  16
BRANCH   4  24
ATOM     24  C   UNL     1      22.217   1.762  48.832  0.00  0.00    +0.000 C 
ATOM     25  O   UNL     1      21.907   0.882  48.047  0.00  0.00    +0.000 OA
ATOM     26  O   UNL     1      22.889   2.845  48.397  0.00  0.00    +0.000 OA
ENDBRANCH   4  24
BRANCH   1  27
ATOM     27  C   UNL     1      20.701   4.846  50.917  0.00  0.00    +0.000 C 
BRANCH  27  28
ATOM     28  C   UNL     1      21.686   5.893  51.461  0.00  0.00    +0.000 C 
BRANCH  28  29
ATOM     29  C   UNL     1      22.829   6.311  50.531  0.00  0.00    +0.000 C 
BRANCH  29  30
ATOM     30  C   UNL     1      24.219   6.394  51.168  0.00  0.00    +0.000 C 
BRANCH  30  32
ATOM     31  C   UNL     1      25.011   5.732  48.867  0.00  0.00    +0.000 C 
ATOM     32  C   UNL     1      25.359   6.470  50.150  0.00  0.00    +0.000 C 
ENDBRANCH  30  32
ENDBRANCH  29  30
ENDBRANCH  28  29
ENDBRANCH  27  28
ENDBRANCH   1  27
TORSDOF 9
ENDMDL
MODEL 8
REMARK VINA RESULT:    -7.014      2.078      6.929
REMARK INTER + INTRA:         -12.800
REMARK INTER:                 -10.922
REMARK INTRA:                  -1.878
REMARK UNBOUND:                -2.096
REMARK  Name = 
REMARK  11 active torsions:
REMARK  status: ('A' for Active; 'I' for Inactive)
REMARK    1  A    between atoms: C_1  and  C_2
REMARK    2  A    between atoms: C_2  and  C_3
REMARK    3  A    between atoms: C_3  and  C_4
REMARK    4  A    between atoms: C_4  and  C_5
REMARK    5  A    between atoms: C_5  and  C_6
REMARK    6  A    between atoms: C_6  and  N_7
REMARK    7  A    between atoms: C_9  and  C_10
REMARK    8  A    between atoms: C_19  and  C_20
REMARK    9  A    between atoms: C_23  and  C_24
REMARK   10  A    between atoms: C_27  and  O_28
REMARK   11  A    between atoms: O_28  and  C_29
REMARK                            x       y       z     vdW  Elec       q    Type
REMARK                         _______ _______ _______ _____ _____    ______ ____
ROOT
ATOM      1  N   UNL     1      23.168   3.905  52.695  0.00  0.00    +0.000 N 
ATOM      2  C   UNL     1      24.188   3.010  53.281  0.00  0.00    +0.000 C 
ATOM      3  C   UNL     1      25.099   2.674  52.105  0.00  0.00    +0.000 C 
ATOM      4  C   UNL     1      24.081   2.415  50.990  0.00  0.00    +0.000 C 
ATOM      5  C   UNL     1      22.869   3.308  51.356  0.00  0.00    +0.000 C 
ATOM      6  H   UNL     1      22.314   3.965  53.250  0.00  0.00    +0.000 HD
ENDROOT
BRANCH   3   7
ATOM      7  C   UNL     1      26.107   1.584  52.386  0.00  0.00    +0.000 A 
ATOM      8  C   UNL     1      25.851   0.221  52.116  0.00  0.00    +0.000 A 
ATOM      9  C   UNL     1      26.797  -0.764  52.430  0.00  0.00    +0.000 A 
ATOM     10  C   UNL     1      27.979  -0.362  53.016  0.00  0.00    +0.000 A 
ATOM     11  C   UNL     1      28.241   0.959  53.276  0.00  0.00    +0.000 A 
ATOM     12  C   UNL     1      27.335   1.949  52.970  0.00  0.00    +0.000 A 
ATOM     13  O   UNL     1      29.452   1.149  53.861  0.00  0.00    +0.000 OA
ATOM     14  C   UNL     1      29.913  -0.213  53.970  0.00  0.00    +0.000 C 
ATOM     15  O   UNL     1      28.997  -1.176  53.406  0.00  0.00    +0.000 OA
ENDBRANCH   3   7
BRANCH   5  16
ATOM     16  C   UNL     1      21.556   2.514  51.400  0.00  0.00    +0.000 A 
ATOM     17  C   UNL     1      20.346   3.115  51.786  0.00  0.00    +0.000 A 
ATOM     18  C   UNL     1      19.146   2.402  51.805  0.00  0.00    +0.000 A 
ATOM     19  C   UNL     1      19.123   1.066  51.435  0.00  0.00    +0.000 A 
ATOM     20  C   UNL     1      20.312   0.448  51.043  0.00  0.00    +0.000 A 
ATOM     21  C   UNL     1      21.517   1.164  51.018  0.00  0.00    +0.000 A 
BRANCH  19  22
ATOM     22  O   UNL     1      18.011   0.267  51.421  0.00  0.00    +0.000 OA
ATOM     23  C   UNL     1      17.903  -0.670  52.490  0.00  0.00    +0.000 C 
ENDBRANCH  19  22
ENDBRANCH   5  16
BRANCH   4  24
ATOM     24  C   UNL     1      24.637   2.818  49.651  0.00  0.00    +0.000 C 
ATOM     25  O   UNL     1      24.014   3.017  48.622  0.00  0.00    +0.000 OA
ATOM     26  O   UNL     1      25.980   2.928  49.656  0.00  0.00    +0.000 OA
ENDBRANCH   4  24
BRANCH   1  27
ATOM     27  C   UNL     1      23.640   5.299  52.652  0.00  0.00    +0.000 C 
BRANCH  27  28
ATOM     28  C   UNL     1      23.553   6.008  51.292  0.00  0.00    +0.000 C 
BRANCH  28  29
ATOM     29  C   UNL     1      24.880   6.417  50.644  0.00  0.00    +0.000 C 
BRANCH  29  30
ATOM     30  C   UNL     1      24.909   6.416  49.113  0.00  0.00    +0.000 C 
BRANCH  30  32
ATOM     31  C   UNL     1      27.302   5.923  48.484  0.00  0.00    +0.000 C 
ATOM     32  C   UNL     1      26.205   6.976  48.522  0.00  0.00    +0.000 C 
ENDBRANCH  30  32
ENDBRANCH  29  30
ENDBRANCH  28  29
ENDBRANCH  27  28
ENDBRANCH   1  27
TORSDOF 9
ENDMDL
MODEL 9
REMARK VINA RESULT:    -7.007      2.970      6.512
REMARK INTER + INTRA:         -12.789
REMARK INTER:                 -10.578
REMARK INTRA:                  -2.210
REMARK UNBOUND:                -2.096
REMARK  Name = 
REMARK  11 active torsions:
REMARK  status: ('A' for Active; 'I' for Inactive)
REMARK    1  A    between atoms: C_1  and  C_2
REMARK    2  A    between atoms: C_2  and  C_3
REMARK    3  A    between atoms: C_3  and  C_4
REMARK    4  A    between atoms: C_4  and  C_5
REMARK    5  A    between atoms: C_5  and  C_6
REMARK    6  A    between atoms: C_6  and  N_7
REMARK    7  A    between atoms: C_9  and  C_10
REMARK    8  A    between atoms: C_19  and  C_20
REMARK    9  A    between atoms: C_23  and  C_24
REMARK   10  A    between atoms: C_27  and  O_28
REMARK   11  A    between atoms: O_28  and  C_29
REMARK                            x       y       z     vdW  Elec       q    Type
REMARK                         _______ _______ _______ _____ _____    ______ ____
ROOT
ATOM      1  N   UNL     1      21.745   2.425  52.272  0.00  0.00    +0.000 N 
ATOM      2  C   UNL     1      21.646   3.896  52.163  0.00  0.00    +0.000 C 
ATOM      3  C   UNL     1      21.575   4.148  50.661  0.00  0.00    +0.000 C 
ATOM      4  C   UNL     1      22.647   3.189  50.137  0.00  0.00    +0.000 C 
ATOM      5  C   UNL     1      22.664   2.027  51.161  0.00  0.00    +0.000 C 
ATOM      6  H   UNL     1      22.118   2.109  53.167  0.00  0.00    +0.000 HD
ENDROOT
BRANCH   3   7
ATOM      7  C   UNL     1      21.696   5.601  50.264  0.00  0.00    +0.000 A 
ATOM      8  C   UNL     1      22.899   6.330  50.393  0.00  0.00    +0.000 A 
ATOM      9  C   UNL     1      22.957   7.688  50.052  0.00  0.00    +0.000 A 
ATOM     10  C   UNL     1      21.805   8.290  49.594  0.00  0.00    +0.000 A 
ATOM     11  C   UNL     1      20.632   7.591  49.459  0.00  0.00    +0.000 A 
ATOM     12  C   UNL     1      20.547   6.254  49.777  0.00  0.00    +0.000 A 
ATOM     13  O   UNL     1      19.611   8.361  49.002  0.00  0.00    +0.000 OA
ATOM     14  C   UNL     1      20.268   9.640  48.895  0.00  0.00    +0.000 C 
ATOM     15  O   UNL     1      21.670   9.596  49.239  0.00  0.00    +0.000 OA
ENDBRANCH   3   7
BRANCH   5  16
ATOM     16  C   UNL     1      24.075   1.752  51.702  0.00  0.00    +0.000 A 
ATOM     17  C   UNL     1      25.191   2.471  51.241  0.00  0.00    +0.000 A 
ATOM     18  C   UNL     1      26.472   2.240  51.747  0.00  0.00    +0.000 A 
ATOM     19  C   UNL     1      26.671   1.283  52.730  0.00  0.00    +0.000 A 
ATOM     20  C   UNL     1      25.576   0.559  53.207  0.00  0.00    +0.000 A 
ATOM     21  C   UNL     1      24.288   0.794  52.705  0.00  0.00    +0.000 A 
BRANCH  19  22
ATOM     22  O   UNL     1      27.878   0.966  53.295  0.00  0.00    +0.000 OA
ATOM     23  C   UNL     1      28.710   2.068  53.648  0.00  0.00    +0.000 C 
ENDBRANCH  19  22
ENDBRANCH   5  16
BRANCH   4  24
ATOM     24  C   UNL     1      22.283   2.671  48.771  0.00  0.00    +0.000 C 
ATOM     25  O   UNL     1      22.324   3.280  47.715  0.00  0.00    +0.000 OA
ATOM     26  O   UNL     1      21.850   1.395  48.796  0.00  0.00    +0.000 OA
ENDBRANCH   4  24
BRANCH   1  27
ATOM     27  C   UNL     1      20.415   1.795  52.221  0.00  0.00    +0.000 C 
BRANCH  27  28
ATOM     28  C   UNL     1      20.389   0.265  52.076  0.00  0.00    +0.000 C 
BRANCH  28  29
ATOM     29  C   UNL     1      20.188  -0.544  53.361  0.00  0.00    +0.000 C 
BRANCH  29  30
ATOM     30  C   UNL     1      21.409  -1.316  53.867  0.00  0.00    +0.000 C 
BRANCH  30  32
ATOM     31  C   UNL     1      23.309  -1.445  55.521  0.00  0.00    +0.000 C 
ATOM     32  C   UNL     1      22.013  -0.740  55.150  0.00  0.00    +0.000 C 
ENDBRANCH  30  32
ENDBRANCH  29  30
ENDBRANCH  28  29
ENDBRANCH  27  28
ENDBRANCH   1  27
TORSDOF 9
ENDMDL
