MODEL 1
REMARK VINA RESULT:    -8.151      0.000      0.000
REMARK INTER + INTRA:         -11.803
REMARK INTER:                 -11.010
REMARK INTRA:                  -0.793
REMARK UNBOUND:                -0.793
REMARK  Name = 
REMARK  9 active torsions:
REMARK  status: ('A' for Active; 'I' for Inactive)
REMARK    1  A    between atoms: C_1  and  C_2
REMARK    2  A    between atoms: C_2  and  N_3
REMARK    3  A    between atoms: N_3  and  C_4
REMARK    4  A    between atoms: N_3  and  C_6
REMARK    5  A    between atoms: C_4  and  C_5
REMARK    6  A    between atoms: C_6  and  C_7
REMARK    7  A    between atoms: C_7  and  N_8
REMARK    8  A    between atoms: N_8  and  C_9
REMARK    9  A    between atoms: C_19  and  C_20
REMARK                            x       y       z     vdW  Elec       q    Type
REMARK                         _______ _______ _______ _____ _____    ______ ____
ROOT
ATOM      1  C   UNL     1      23.606  -0.605  53.884  0.00  0.00    +0.000 A 
ATOM      2  C   UNL     1      22.657  -1.085  54.817  0.00  0.00    +0.000 A 
ATOM      3  C   UNL     1      21.254  -0.983  54.625  0.00  0.00    +0.000 A 
ATOM      4  C   UNL     1      20.798  -0.458  53.419  0.00  0.00    +0.000 A 
ATOM      5  N   UNL     1      19.544  -0.278  52.877  0.00  0.00    +0.000 NA
ATOM      6  C   UNL     1      19.748   0.255  51.681  0.00  0.00    +0.000 A 
ATOM      7  N   UNL     1      21.081   0.387  51.427  0.00  0.00    +0.000 N 
ATOM      8  C   UNL     1      21.779   0.966  50.363  0.00  0.00    +0.000 A 
ATOM      9  C   UNL     1      21.268   1.083  49.081  0.00  0.00    +0.000 A 
ATOM     10  C   UNL     1      21.864   2.059  48.303  0.00  0.00    +0.000 A 
ATOM     11  C   UNL     1      22.418   3.125  49.007  0.00  0.00    +0.000 A 
ATOM     12  C   UNL     1      21.289   4.091  49.502  0.00  0.00    +0.000 C 
ATOM     13  C   UNL     1      23.326   2.732  50.000  0.00  0.00    +0.000 A 
ATOM     14  C   UNL     1      23.004   1.572  50.697  0.00  0.00    +0.000 A 
ATOM     15  C   UNL     1      23.831   1.019  51.831  0.00  0.00    +0.000 A 
ATOM     16  O   UNL     1      25.016   1.296  51.937  0.00  0.00    +0.000 OA
ATOM     17  C   UNL     1      23.110   0.133  52.801  0.00  0.00    +0.000 A 
ATOM     18  C   UNL     1      21.753   0.039  52.559  0.00  0.00    +0.000 A 
ENDROOT
BRANCH   1  19
ATOM     19  N   UNL     1      24.979  -0.796  54.056  0.00  0.00    +0.000 N 
ATOM     20  H   UNL     1      25.459  -1.389  53.434  0.00  0.00    +0.000 HD
BRANCH  19  21
ATOM     21  C   UNL     1      25.732  -0.141  55.135  0.00  0.00    +0.000 C 
BRANCH  21  22
ATOM     22  C   UNL     1      27.164   0.355  54.767  0.00  0.00    +0.000 C 
BRANCH  22  23
ATOM     23  N   UNL     1      27.620   0.158  53.373  0.00  0.00    +0.000 N 
ATOM     24  H   UNL     1      26.791  -0.003  52.799  0.00  0.00    +0.000 HD
BRANCH  23  26
ATOM     25  C   UNL     1      28.537   2.426  53.870  0.00  0.00    +0.000 C 
ATOM     26  C   UNL     1      28.250   1.363  52.811  0.00  0.00    +0.000 C 
ENDBRANCH  23  26
BRANCH  23  27
ATOM     27  C   UNL     1      28.458  -1.054  53.246  0.00  0.00    +0.000 C 
ATOM     28  C   UNL     1      29.939  -0.933  53.611  0.00  0.00    +0.000 C 
ENDBRANCH  23  27
ENDBRANCH  22  23
ENDBRANCH  21  22
ENDBRANCH  19  21
ENDBRANCH   1  19
TORSDOF 6
ENDMDL
MODEL 2
REMARK VINA RESULT:    -7.918      2.037      5.703
REMARK INTER + INTRA:         -11.489
REMARK INTER:                 -10.430
REMARK INTRA:                  -1.059
REMARK UNBOUND:                -0.793
REMARK  Name = 
REMARK  9 active torsions:
REMARK  status: ('A' for Active; 'I' for Inactive)
REMARK    1  A    between atoms: C_1  and  C_2
REMARK    2  A    between atoms: C_2  and  N_3
REMARK    3  A    between atoms: N_3  and  C_4
REMARK    4  A    between atoms: N_3  and  C_6
REMARK    5  A    between atoms: C_4  and  C_5
REMARK    6  A    between atoms: C_6  and  C_7
REMARK    7  A    between atoms: C_7  and  N_8
REMARK    8  A    between atoms: N_8  and  C_9
REMARK    9  A    between atoms: C_19  and  C_20
REMARK                            x       y       z     vdW  Elec       q    Type
REMARK                         _______ _______ _______ _____ _____    ______ ____
ROOT
ATOM      1  C   UNL     1      21.612   1.720  52.390  0.00  0.00    +0.000 A 
ATOM      2  C   UNL     1      20.439   1.133  52.920  0.00  0.00    +0.000 A 
ATOM      3  C   UNL     1      20.454   0.035  53.819  0.00  0.00    +0.000 A 
ATOM      4  C   UNL     1      21.691  -0.430  54.259  0.00  0.00    +0.000 A 
ATOM      5  N   UNL     1      22.073  -1.403  55.156  0.00  0.00    +0.000 NA
ATOM      6  C   UNL     1      23.398  -1.370  55.170  0.00  0.00    +0.000 A 
ATOM      7  N   UNL     1      23.870  -0.393  54.345  0.00  0.00    +0.000 N 
ATOM      8  C   UNL     1      25.167  -0.036  53.962  0.00  0.00    +0.000 A 
ATOM      9  C   UNL     1      26.291  -0.274  54.737  0.00  0.00    +0.000 A 
ATOM     10  C   UNL     1      27.486  -0.293  54.040  0.00  0.00    +0.000 A 
ATOM     11  C   UNL     1      27.386  -0.659  52.700  0.00  0.00    +0.000 A 
ATOM     12  C   UNL     1      27.194  -2.208  52.575  0.00  0.00    +0.000 C 
ATOM     13  C   UNL     1      26.461   0.104  51.975  0.00  0.00    +0.000 A 
ATOM     14  C   UNL     1      25.300   0.461  52.653  0.00  0.00    +0.000 A 
ATOM     15  C   UNL     1      24.169   1.237  52.026  0.00  0.00    +0.000 A 
ATOM     16  O   UNL     1      24.360   1.949  51.052  0.00  0.00    +0.000 OA
ATOM     17  C   UNL     1      22.823   1.071  52.664  0.00  0.00    +0.000 A 
ATOM     18  C   UNL     1      22.807   0.138  53.683  0.00  0.00    +0.000 A 
ENDROOT
BRANCH   1  19
ATOM     19  N   UNL     1      21.572   2.855  51.576  0.00  0.00    +0.000 N 
ATOM     20  H   UNL     1      21.418   2.743  50.610  0.00  0.00    +0.000 HD
BRANCH  19  21
ATOM     21  C   UNL     1      21.753   4.211  52.113  0.00  0.00    +0.000 C 
BRANCH  21  22
ATOM     22  C   UNL     1      22.497   5.221  51.187  0.00  0.00    +0.000 C 
BRANCH  22  23
ATOM     23  N   UNL     1      23.461   4.669  50.208  0.00  0.00    +0.000 N 
ATOM     24  H   UNL     1      23.570   3.675  50.413  0.00  0.00    +0.000 HD
BRANCH  23  26
ATOM     25  C   UNL     1      22.695   3.342  48.238  0.00  0.00    +0.000 C 
ATOM     26  C   UNL     1      22.956   4.727  48.828  0.00  0.00    +0.000 C 
ENDBRANCH  23  26
BRANCH  23  27
ATOM     27  C   UNL     1      24.800   5.279  50.368  0.00  0.00    +0.000 C 
ATOM     28  C   UNL     1      25.906   4.822  49.415  0.00  0.00    +0.000 C 
ENDBRANCH  23  27
ENDBRANCH  22  23
ENDBRANCH  21  22
ENDBRANCH  19  21
ENDBRANCH   1  19
TORSDOF 6
ENDMDL
MODEL 3
REMARK VINA RESULT:    -7.661      2.450      6.042
REMARK INTER + INTRA:         -11.142
REMARK INTER:                 -10.489
REMARK INTRA:                  -0.653
REMARK UNBOUND:                -0.793
REMARK  Name = 
REMARK  9 active torsions:
REMARK  status: ('A' for Active; 'I' for Inactive)
REMARK    1  A    between atoms: C_1  and  C_2
REMARK    2  A    between atoms: C_2  and  N_3
REMARK    3  A    between atoms: N_3  and  C_4
REMARK    4  A    between atoms: N_3  and  C_6
REMARK    5  A    between atoms: C_4  and  C_5
REMARK    6  A    between atoms: C_6  and  C_7
REMARK    7  A    between atoms: C_7  and  N_8
REMARK    8  A    between atoms: N_8  and  C_9
REMARK    9  A    between atoms: C_19  and  C_20
REMARK                            x       y       z     vdW  Elec       q    Type
REMARK                         _______ _______ _______ _____ _____    ______ ____
ROOT
ATOM      1  C   UNL     1      21.582   1.713  52.338  0.00  0.00    +0.000 A 
ATOM      2  C   UNL     1      20.405   1.111  52.839  0.00  0.00    +0.000 A 
ATOM      3  C   UNL     1      20.412   0.003  53.726  0.00  0.00    +0.000 A 
ATOM      4  C   UNL     1      21.644  -0.457  54.185  0.00  0.00    +0.000 A 
ATOM      5  N   UNL     1      22.017  -1.436  55.079  0.00  0.00    +0.000 NA
ATOM      6  C   UNL     1      23.341  -1.393  55.119  0.00  0.00    +0.000 A 
ATOM      7  N   UNL     1      23.821  -0.403  54.314  0.00  0.00    +0.000 N 
ATOM      8  C   UNL     1      25.122  -0.031  53.960  0.00  0.00    +0.000 A 
ATOM      9  C   UNL     1      26.232  -0.268  54.754  0.00  0.00    +0.000 A 
ATOM     10  C   UNL     1      27.440  -0.270  54.080  0.00  0.00    +0.000 A 
ATOM     11  C   UNL     1      27.370  -0.622  52.734  0.00  0.00    +0.000 A 
ATOM     12  C   UNL     1      27.193  -2.171  52.589  0.00  0.00    +0.000 C 
ATOM     13  C   UNL     1      26.453   0.141  52.000  0.00  0.00    +0.000 A 
ATOM     14  C   UNL     1      25.275   0.481  52.659  0.00  0.00    +0.000 A 
ATOM     15  C   UNL     1      24.150   1.255  52.019  0.00  0.00    +0.000 A 
ATOM     16  O   UNL     1      24.354   1.978  51.056  0.00  0.00    +0.000 OA
ATOM     17  C   UNL     1      22.794   1.071  52.629  0.00  0.00    +0.000 A 
ATOM     18  C   UNL     1      22.766   0.127  53.638  0.00  0.00    +0.000 A 
ENDROOT
BRANCH   1  19
ATOM     19  N   UNL     1      21.549   2.856  51.536  0.00  0.00    +0.000 N 
ATOM     20  H   UNL     1      21.559   2.751  50.557  0.00  0.00    +0.000 HD
BRANCH  19  21
ATOM     21  C   UNL     1      21.500   4.211  52.104  0.00  0.00    +0.000 C 
BRANCH  21  22
ATOM     22  C   UNL     1      22.862   4.963  52.200  0.00  0.00    +0.000 C 
BRANCH  22  23
ATOM     23  N   UNL     1      23.072   6.116  51.295  0.00  0.00    +0.000 N 
ATOM     24  H   UNL     1      23.251   6.934  51.878  0.00  0.00    +0.000 HD
BRANCH  23  26
ATOM     25  C   UNL     1      25.238   7.144  50.598  0.00  0.00    +0.000 C 
ATOM     26  C   UNL     1      24.276   5.965  50.462  0.00  0.00    +0.000 C 
ENDBRANCH  23  26
BRANCH  23  27
ATOM     27  C   UNL     1      21.853   6.416  50.512  0.00  0.00    +0.000 C 
ATOM     28  C   UNL     1      21.407   7.877  50.427  0.00  0.00    +0.000 C 
ENDBRANCH  23  27
ENDBRANCH  22  23
ENDBRANCH  21  22
ENDBRANCH  19  21
ENDBRANCH   1  19
TORSDOF 6
ENDMDL
MODEL 4
REMARK VINA RESULT:    -7.086      3.458      6.085
REMARK INTER + INTRA:         -10.365
REMARK INTER:                  -9.887
REMARK INTRA:                  -0.478
REMARK UNBOUND:                -0.793
REMARK  Name = 
REMARK  9 active torsions:
REMARK  status: ('A' for Active; 'I' for Inactive)
REMARK    1  A    between atoms: C_1  and  C_2
REMARK    2  A    between atoms: C_2  and  N_3
REMARK    3  A    between atoms: N_3  and  C_4
REMARK    4  A    between atoms: N_3  and  C_6
REMARK    5  A    between atoms: C_4  and  C_5
REMARK    6  A    between atoms: C_6  and  C_7
REMARK    7  A    between atoms: C_7  and  N_8
REMARK    8  A    between atoms: N_8  and  C_9
REMARK    9  A    between atoms: C_19  and  C_20
REMARK                            x       y       z     vdW  Elec       q    Type
REMARK                         _______ _______ _______ _____ _____    ______ ____
ROOT
ATOM      1  C   UNL     1      25.928   2.644  51.159  0.00  0.00    +0.000 A 
ATOM      2  C   UNL     1      27.206   2.624  51.766  0.00  0.00    +0.000 A 
ATOM      3  C   UNL     1      27.517   1.832  52.902  0.00  0.00    +0.000 A 
ATOM      4  C   UNL     1      26.534   0.972  53.386  0.00  0.00    +0.000 A 
ATOM      5  N   UNL     1      26.508   0.036  54.397  0.00  0.00    +0.000 NA
ATOM      6  C   UNL     1      25.289  -0.482  54.366  0.00  0.00    +0.000 A 
ATOM      7  N   UNL     1      24.553   0.060  53.355  0.00  0.00    +0.000 N 
ATOM      8  C   UNL     1      23.213  -0.095  52.984  0.00  0.00    +0.000 A 
ATOM      9  C   UNL     1      22.466  -1.229  53.256  0.00  0.00    +0.000 A 
ATOM     10  C   UNL     1      21.096  -1.040  53.247  0.00  0.00    +0.000 A 
ATOM     11  C   UNL     1      20.672   0.250  53.556  0.00  0.00    +0.000 A 
ATOM     12  C   UNL     1      20.779   0.501  55.097  0.00  0.00    +0.000 C 
ATOM     13  C   UNL     1      21.262   1.242  52.761  0.00  0.00    +0.000 A 
ATOM     14  C   UNL     1      22.600   1.045  52.432  0.00  0.00    +0.000 A 
ATOM     15  C   UNL     1      23.418   2.024  51.628  0.00  0.00    +0.000 A 
ATOM     16  O   UNL     1      22.882   2.823  50.877  0.00  0.00    +0.000 OA
ATOM     17  C   UNL     1      24.903   1.954  51.821  0.00  0.00    +0.000 A 
ATOM     18  C   UNL     1      25.292   1.056  52.796  0.00  0.00    +0.000 A 
ENDROOT
BRANCH   1  19
ATOM     19  N   UNL     1      25.672   3.365  49.991  0.00  0.00    +0.000 N 
ATOM     20  H   UNL     1      24.763   3.352  49.612  0.00  0.00    +0.000 HD
BRANCH  19  21
ATOM     21  C   UNL     1      26.714   4.144  49.306  0.00  0.00    +0.000 C 
BRANCH  21  22
ATOM     22  C   UNL     1      26.299   5.566  48.820  0.00  0.00    +0.000 C 
BRANCH  22  23
ATOM     23  N   UNL     1      26.814   6.727  49.581  0.00  0.00    +0.000 N 
ATOM     24  H   UNL     1      27.343   6.362  50.374  0.00  0.00    +0.000 HD
BRANCH  23  26
ATOM     25  C   UNL     1      27.958   8.935  49.362  0.00  0.00    +0.000 C 
ATOM     26  C   UNL     1      27.779   7.523  48.806  0.00  0.00    +0.000 C 
ENDBRANCH  23  26
BRANCH  23  27
ATOM     27  C   UNL     1      25.710   7.533  50.147  0.00  0.00    +0.000 C 
ATOM     28  C   UNL     1      24.644   6.800  50.963  0.00  0.00    +0.000 C 
ENDBRANCH  23  27
ENDBRANCH  22  23
ENDBRANCH  21  22
ENDBRANCH  19  21
ENDBRANCH   1  19
TORSDOF 6
ENDMDL
MODEL 5
REMARK VINA RESULT:    -7.068      2.985      6.418
REMARK INTER + INTRA:         -10.340
REMARK INTER:                  -9.824
REMARK INTRA:                  -0.517
REMARK UNBOUND:                -0.793
REMARK  Name = 
REMARK  9 active torsions:
REMARK  status: ('A' for Active; 'I' for Inactive)
REMARK    1  A    between atoms: C_1  and  C_2
REMARK    2  A    between atoms: C_2  and  N_3
REMARK    3  A    between atoms: N_3  and  C_4
REMARK    4  A    between atoms: N_3  and  C_6
REMARK    5  A    between atoms: C_4  and  C_5
REMARK    6  A    between atoms: C_6  and  C_7
REMARK    7  A    between atoms: C_7  and  N_8
REMARK    8  A    between atoms: N_8  and  C_9
REMARK    9  A    between atoms: C_19  and  C_20
REMARK                            x       y       z     vdW  Elec       q    Type
REMARK                         _______ _______ _______ _____ _____    ______ ____
ROOT
ATOM      1  C   UNL     1      23.655   2.587  51.062  0.00  0.00    +0.000 A 
ATOM      2  C   UNL     1      22.374   1.996  50.957  0.00  0.00    +0.000 A 
ATOM      3  C   UNL     1      22.001   0.816  51.652  0.00  0.00    +0.000 A 
ATOM      4  C   UNL     1      22.920   0.265  52.542  0.00  0.00    +0.000 A 
ATOM      5  N   UNL     1      22.876  -0.803  53.411  0.00  0.00    +0.000 NA
ATOM      6  C   UNL     1      24.058  -0.821  54.010  0.00  0.00    +0.000 A 
ATOM      7  N   UNL     1      24.837   0.213  53.584  0.00  0.00    +0.000 N 
ATOM      8  C   UNL     1      26.166   0.557  53.850  0.00  0.00    +0.000 A 
ATOM      9  C   UNL     1      26.833   0.204  55.012  0.00  0.00    +0.000 A 
ATOM     10  C   UNL     1      28.213   0.209  54.915  0.00  0.00    +0.000 A 
ATOM     11  C   UNL     1      28.720  -0.022  53.638  0.00  0.00    +0.000 A 
ATOM     12  C   UNL     1      28.618  -1.543  53.283  0.00  0.00    +0.000 C 
ATOM     13  C   UNL     1      28.204   0.841  52.663  0.00  0.00    +0.000 A 
ATOM     14  C   UNL     1      26.859   1.174  52.793  0.00  0.00    +0.000 A 
ATOM     15  C   UNL     1      26.114   2.048  51.815  0.00  0.00    +0.000 A 
ATOM     16  O   UNL     1      26.709   2.843  51.104  0.00  0.00    +0.000 OA
ATOM     17  C   UNL     1      24.627   1.870  51.774  0.00  0.00    +0.000 A 
ATOM     18  C   UNL     1      24.170   0.845  52.579  0.00  0.00    +0.000 A 
ENDROOT
BRANCH   1  19
ATOM     19  N   UNL     1      23.968   3.796  50.436  0.00  0.00    +0.000 N 
ATOM     20  H   UNL     1      24.356   3.777  49.531  0.00  0.00    +0.000 HD
BRANCH  19  21
ATOM     21  C   UNL     1      23.739   5.096  51.082  0.00  0.00    +0.000 C 
BRANCH  21  22
ATOM     22  C   UNL     1      24.257   6.347  50.308  0.00  0.00    +0.000 C 
BRANCH  22  23
ATOM     23  N   UNL     1      24.998   6.113  49.048  0.00  0.00    +0.000 N 
ATOM     24  H   UNL     1      24.683   5.220  48.668  0.00  0.00    +0.000 HD
BRANCH  23  26
ATOM     25  C   UNL     1      24.253   8.454  48.601  0.00  0.00    +0.000 C 
ATOM     26  C   UNL     1      24.675   7.108  48.013  0.00  0.00    +0.000 C 
ENDBRANCH  23  26
BRANCH  23  27
ATOM     27  C   UNL     1      26.450   5.976  49.294  0.00  0.00    +0.000 C 
ATOM     28  C   UNL     1      27.404   6.431  48.188  0.00  0.00    +0.000 C 
ENDBRANCH  23  27
ENDBRANCH  22  23
ENDBRANCH  21  22
ENDBRANCH  19  21
ENDBRANCH   1  19
TORSDOF 6
ENDMDL
MODEL 6
REMARK VINA RESULT:    -7.039      2.290      7.112
REMARK INTER + INTRA:         -10.302
REMARK INTER:                  -9.850
REMARK INTRA:                  -0.451
REMARK UNBOUND:                -0.793
REMARK  Name = 
REMARK  9 active torsions:
REMARK  status: ('A' for Active; 'I' for Inactive)
REMARK    1  A    between atoms: C_1  and  C_2
REMARK    2  A    between atoms: C_2  and  N_3
REMARK    3  A    between atoms: N_3  and  C_4
REMARK    4  A    between atoms: N_3  and  C_6
REMARK    5  A    between atoms: C_4  and  C_5
REMARK    6  A    between atoms: C_6  and  C_7
REMARK    7  A    between atoms: C_7  and  N_8
REMARK    8  A    between atoms: N_8  and  C_9
REMARK    9  A    between atoms: C_19  and  C_20
REMARK                            x       y       z     vdW  Elec       q    Type
REMARK                         _______ _______ _______ _____ _____    ______ ____
ROOT
ATOM      1  C   UNL     1      21.435   1.208  52.303  0.00  0.00    +0.000 A 
ATOM      2  C   UNL     1      20.348   0.460  52.813  0.00  0.00    +0.000 A 
ATOM      3  C   UNL     1      20.500  -0.605  53.738  0.00  0.00    +0.000 A 
ATOM      4  C   UNL     1      21.777  -0.868  54.226  0.00  0.00    +0.000 A 
ATOM      5  N   UNL     1      22.273  -1.754  55.157  0.00  0.00    +0.000 NA
ATOM      6  C   UNL     1      23.576  -1.519  55.209  0.00  0.00    +0.000 A 
ATOM      7  N   UNL     1      23.922  -0.498  54.376  0.00  0.00    +0.000 N 
ATOM      8  C   UNL     1      25.162   0.045  54.022  0.00  0.00    +0.000 A 
ATOM      9  C   UNL     1      26.282  -0.004  54.835  0.00  0.00    +0.000 A 
ATOM     10  C   UNL     1      27.488   0.145  54.175  0.00  0.00    +0.000 A 
ATOM     11  C   UNL     1      27.490  -0.258  52.841  0.00  0.00    +0.000 A 
ATOM     12  C   UNL     1      27.539  -1.820  52.749  0.00  0.00    +0.000 C 
ATOM     13  C   UNL     1      26.484   0.341  52.072  0.00  0.00    +0.000 A 
ATOM     14  C   UNL     1      25.261   0.531  52.706  0.00  0.00    +0.000 A 
ATOM     15  C   UNL     1      24.046   1.113  52.027  0.00  0.00    +0.000 A 
ATOM     16  O   UNL     1      24.159   1.826  51.042  0.00  0.00    +0.000 OA
ATOM     17  C   UNL     1      22.721   0.756  52.629  0.00  0.00    +0.000 A 
ATOM     18  C   UNL     1      22.813  -0.148  53.670  0.00  0.00    +0.000 A 
ENDROOT
BRANCH   1  19
ATOM     19  N   UNL     1      21.250   2.307  51.462  0.00  0.00    +0.000 N 
ATOM     20  H   UNL     1      21.708   2.322  50.590  0.00  0.00    +0.000 HD
BRANCH  19  21
ATOM     21  C   UNL     1      20.397   3.445  51.833  0.00  0.00    +0.000 C 
BRANCH  21  22
ATOM     22  C   UNL     1      18.864   3.246  51.633  0.00  0.00    +0.000 C 
BRANCH  22  23
ATOM     23  N   UNL     1      18.295   3.595  50.311  0.00  0.00    +0.000 N 
ATOM     24  H   UNL     1      18.927   4.266  49.873  0.00  0.00    +0.000 HD
BRANCH  23  26
ATOM     25  C   UNL     1      18.006   1.123  50.116  0.00  0.00    +0.000 C 
ATOM     26  C   UNL     1      18.256   2.446  49.394  0.00  0.00    +0.000 C 
ENDBRANCH  23  26
BRANCH  23  27
ATOM     27  C   UNL     1      16.989   4.277  50.450  0.00  0.00    +0.000 C 
ATOM     28  C   UNL     1      16.306   4.229  51.818  0.00  0.00    +0.000 C 
ENDBRANCH  23  27
ENDBRANCH  22  23
ENDBRANCH  21  22
ENDBRANCH  19  21
ENDBRANCH   1  19
TORSDOF 6
ENDMDL
MODEL 7
REMARK VINA RESULT:    -7.031      2.111      6.815
REMARK INTER + INTRA:         -10.290
REMARK INTER:                  -9.534
REMARK INTRA:                  -0.757
REMARK UNBOUND:                -0.793
REMARK  Name = 
REMARK  9 active torsions:
REMARK  status: ('A' for Active; 'I' for Inactive)
REMARK    1  A    between atoms: C_1  and  C_2
REMARK    2  A    between atoms: C_2  and  N_3
REMARK    3  A    between atoms: N_3  and  C_4
REMARK    4  A    between atoms: N_3  and  C_6
REMARK    5  A    between atoms: C_4  and  C_5
REMARK    6  A    between atoms: C_6  and  C_7
REMARK    7  A    between atoms: C_7  and  N_8
REMARK    8  A    between atoms: N_8  and  C_9
REMARK    9  A    between atoms: C_19  and  C_20
REMARK                            x       y       z     vdW  Elec       q    Type
REMARK                         _______ _______ _______ _____ _____    ______ ____
ROOT
ATOM      1  C   UNL     1      23.793   2.584  51.005  0.00  0.00    +0.000 A 
ATOM      2  C   UNL     1      22.511   1.998  50.886  0.00  0.00    +0.000 A 
ATOM      3  C   UNL     1      22.121   0.827  51.588  0.00  0.00    +0.000 A 
ATOM      4  C   UNL     1      23.023   0.282  52.498  0.00  0.00    +0.000 A 
ATOM      5  N   UNL     1      22.960  -0.777  53.377  0.00  0.00    +0.000 NA
ATOM      6  C   UNL     1      24.132  -0.794  53.996  0.00  0.00    +0.000 A 
ATOM      7  N   UNL     1      24.922   0.233  53.572  0.00  0.00    +0.000 N 
ATOM      8  C   UNL     1      26.248   0.574  53.856  0.00  0.00    +0.000 A 
ATOM      9  C   UNL     1      26.895   0.230  55.032  0.00  0.00    +0.000 A 
ATOM     10  C   UNL     1      28.276   0.228  54.958  0.00  0.00    +0.000 A 
ATOM     11  C   UNL     1      28.803  -0.020  53.693  0.00  0.00    +0.000 A 
ATOM     12  C   UNL     1      28.699  -1.544  53.352  0.00  0.00    +0.000 C 
ATOM     13  C   UNL     1      28.306   0.835  52.700  0.00  0.00    +0.000 A 
ATOM     14  C   UNL     1      26.961   1.175  52.804  0.00  0.00    +0.000 A 
ATOM     15  C   UNL     1      26.237   2.043  51.805  0.00  0.00    +0.000 A 
ATOM     16  O   UNL     1      26.847   2.827  51.095  0.00  0.00    +0.000 OA
ATOM     17  C   UNL     1      24.749   1.871  51.741  0.00  0.00    +0.000 A 
ATOM     18  C   UNL     1      24.275   0.856  52.550  0.00  0.00    +0.000 A 
ENDROOT
BRANCH   1  19
ATOM     19  N   UNL     1      24.121   3.785  50.372  0.00  0.00    +0.000 N 
ATOM     20  H   UNL     1      24.410   3.763  49.431  0.00  0.00    +0.000 HD
BRANCH  19  21
ATOM     21  C   UNL     1      24.052   5.081  51.062  0.00  0.00    +0.000 C 
BRANCH  21  22
ATOM     22  C   UNL     1      22.789   5.946  50.768  0.00  0.00    +0.000 C 
BRANCH  22  23
ATOM     23  N   UNL     1      21.838   5.446  49.749  0.00  0.00    +0.000 N 
ATOM     24  H   UNL     1      21.977   4.438  49.670  0.00  0.00    +0.000 HD
BRANCH  23  26
ATOM     25  C   UNL     1      19.893   4.396  50.910  0.00  0.00    +0.000 C 
ATOM     26  C   UNL     1      20.435   5.612  50.160  0.00  0.00    +0.000 C 
ENDBRANCH  23  26
BRANCH  23  27
ATOM     27  C   UNL     1      22.128   6.017  48.416  0.00  0.00    +0.000 C 
ATOM     28  C   UNL     1      22.478   5.043  47.289  0.00  0.00    +0.000 C 
ENDBRANCH  23  27
ENDBRANCH  22  23
ENDBRANCH  21  22
ENDBRANCH  19  21
ENDBRANCH   1  19
TORSDOF 6
ENDMDL
MODEL 8
REMARK VINA RESULT:    -7.024      2.341      3.536
REMARK INTER + INTRA:         -10.280
REMARK INTER:                  -9.066
REMARK INTRA:                  -1.215
REMARK UNBOUND:                -0.793
REMARK  Name = 
REMARK  9 active torsions:
REMARK  status: ('A' for Active; 'I' for Inactive)
REMARK    1  A    between atoms: C_1  and  C_2
REMARK    2  A    between atoms: C_2  and  N_3
REMARK    3  A    between atoms: N_3  and  C_4
REMARK    4  A    between atoms: N_3  and  C_6
REMARK    5  A    between atoms: C_4  and  C_5
REMARK    6  A    between atoms: C_6  and  C_7
REMARK    7  A    between atoms: C_7  and  N_8
REMARK    8  A    between atoms: N_8  and  C_9
REMARK    9  A    between atoms: C_19  and  C_20
REMARK                            x       y       z     vdW  Elec       q    Type
REMARK                         _______ _______ _______ _____ _____    ______ ____
ROOT
ATOM      1  C   UNL     1      22.786   0.880  52.367  0.00  0.00    +0.000 A 
ATOM      2  C   UNL     1      21.764   0.084  51.800  0.00  0.00    +0.000 A 
ATOM      3  C   UNL     1      21.052   0.448  50.628  0.00  0.00    +0.000 A 
ATOM      4  C   UNL     1      21.441   1.608  49.963  0.00  0.00    +0.000 A 
ATOM      5  N   UNL     1      21.034   2.213  48.793  0.00  0.00    +0.000 NA
ATOM      6  C   UNL     1      21.794   3.291  48.669  0.00  0.00    +0.000 A 
ATOM      7  N   UNL     1      22.692   3.375  49.692  0.00  0.00    +0.000 N 
ATOM      8  C   UNL     1      23.624   4.357  50.042  0.00  0.00    +0.000 A 
ATOM      9  C   UNL     1      24.199   5.230  49.133  0.00  0.00    +0.000 A 
ATOM     10  C   UNL     1      24.711   6.391  49.683  0.00  0.00    +0.000 A 
ATOM     11  C   UNL     1      24.103   6.806  50.866  0.00  0.00    +0.000 A 
ATOM     12  C   UNL     1      22.716   7.465  50.560  0.00  0.00    +0.000 C 
ATOM     13  C   UNL     1      24.074   5.819  51.860  0.00  0.00    +0.000 A 
ATOM     14  C   UNL     1      23.851   4.517  51.421  0.00  0.00    +0.000 A 
ATOM     15  C   UNL     1      23.738   3.330  52.344  0.00  0.00    +0.000 A 
ATOM     16  O   UNL     1      24.234   3.351  53.459  0.00  0.00    +0.000 OA
ATOM     17  C   UNL     1      22.981   2.151  51.810  0.00  0.00    +0.000 A 
ATOM     18  C   UNL     1      22.409   2.377  50.572  0.00  0.00    +0.000 A 
ENDROOT
BRANCH   1  19
ATOM     19  N   UNL     1      23.530   0.458  53.471  0.00  0.00    +0.000 N 
ATOM     20  H   UNL     1      23.232   0.716  54.374  0.00  0.00    +0.000 HD
BRANCH  19  21
ATOM     21  C   UNL     1      24.745  -0.359  53.333  0.00  0.00    +0.000 C 
BRANCH  21  22
ATOM     22  C   UNL     1      26.031   0.206  54.009  0.00  0.00    +0.000 C 
BRANCH  22  23
ATOM     23  N   UNL     1      26.750   1.296  53.311  0.00  0.00    +0.000 N 
ATOM     24  H   UNL     1      26.287   2.173  53.553  0.00  0.00    +0.000 HD
BRANCH  23  26
ATOM     25  C   UNL     1      28.549   0.350  54.760  0.00  0.00    +0.000 C 
ATOM     26  C   UNL     1      28.136   1.447  53.782  0.00  0.00    +0.000 C 
ENDBRANCH  23  26
BRANCH  23  27
ATOM     27  C   UNL     1      26.643   1.157  51.842  0.00  0.00    +0.000 C 
ATOM     28  C   UNL     1      26.755   2.429  50.999  0.00  0.00    +0.000 C 
ENDBRANCH  23  27
ENDBRANCH  22  23
ENDBRANCH  21  22
ENDBRANCH  19  21
ENDBRANCH   1  19
TORSDOF 6
ENDMDL
MODEL 9
REMARK VINA RESULT:    -7.016      2.565      7.470
REMARK INTER + INTRA:         -10.270
REMARK INTER:                  -9.810
REMARK INTRA:                  -0.459
REMARK UNBOUND:                -0.793
REMARK  Name = 
REMARK  9 active torsions:
REMARK  status: ('A' for Active; 'I' for Inactive)
REMARK    1  A    between atoms: C_1  and  C_2
REMARK    2  A    between atoms: C_2  and  N_3
REMARK    3  A    between atoms: N_3  and  C_4
REMARK    4  A    between atoms: N_3  and  C_6
REMARK    5  A    between atoms: C_4  and  C_5
REMARK    6  A    between atoms: C_6  and  C_7
REMARK    7  A    between atoms: C_7  and  N_8
REMARK    8  A    between atoms: N_8  and  C_9
REMARK    9  A    between atoms: C_19  and  C_20
REMARK                            x       y       z     vdW  Elec       q    Type
REMARK                         _______ _______ _______ _____ _____    ______ ____
ROOT
ATOM      1  C   UNL     1      21.391   2.388  52.134  0.00  0.00    +0.000 A 
ATOM      2  C   UNL     1      21.336   3.693  51.592  0.00  0.00    +0.000 A 
ATOM      3  C   UNL     1      22.486   4.413  51.173  0.00  0.00    +0.000 A 
ATOM      4  C   UNL     1      23.716   3.763  51.225  0.00  0.00    +0.000 A 
ATOM      5  N   UNL     1      24.993   4.118  50.847  0.00  0.00    +0.000 NA
ATOM      6  C   UNL     1      25.750   3.068  51.129  0.00  0.00    +0.000 A 
ATOM      7  N   UNL     1      25.001   2.049  51.637  0.00  0.00    +0.000 N 
ATOM      8  C   UNL     1      25.350   0.798  52.156  0.00  0.00    +0.000 A 
ATOM      9  C   UNL     1      26.498   0.110  51.799  0.00  0.00    +0.000 A 
ATOM     10  C   UNL     1      26.916  -0.841  52.713  0.00  0.00    +0.000 A 
ATOM     11  C   UNL     1      26.547  -0.598  54.034  0.00  0.00    +0.000 A 
ATOM     12  C   UNL     1      27.455   0.516  54.654  0.00  0.00    +0.000 C 
ATOM     13  C   UNL     1      25.171  -0.392  54.205  0.00  0.00    +0.000 A 
ATOM     14  C   UNL     1      24.531   0.320  53.196  0.00  0.00    +0.000 A 
ATOM     15  C   UNL     1      23.067   0.683  53.225  0.00  0.00    +0.000 A 
ATOM     16  O   UNL     1      22.275   0.043  53.898  0.00  0.00    +0.000 OA
ATOM     17  C   UNL     1      22.665   1.865  52.396  0.00  0.00    +0.000 A 
ATOM     18  C   UNL     1      23.732   2.512  51.802  0.00  0.00    +0.000 A 
ENDROOT
BRANCH   1  19
ATOM     19  N   UNL     1      20.238   1.669  52.457  0.00  0.00    +0.000 N 
ATOM     20  H   UNL     1      19.812   1.820  53.332  0.00  0.00    +0.000 HD
BRANCH  19  21
ATOM     21  C   UNL     1      19.639   0.692  51.536  0.00  0.00    +0.000 C 
BRANCH  21  22
ATOM     22  C   UNL     1      18.091   0.533  51.619  0.00  0.00    +0.000 C 
BRANCH  22  23
ATOM     23  N   UNL     1      17.561  -0.763  52.102  0.00  0.00    +0.000 N 
ATOM     24  H   UNL     1      17.730  -1.455  51.371  0.00  0.00    +0.000 HD
BRANCH  23  26
ATOM     25  C   UNL     1      17.844  -2.666  53.694  0.00  0.00    +0.000 C 
ATOM     26  C   UNL     1      18.285  -1.262  53.282  0.00  0.00    +0.000 C 
ENDBRANCH  23  26
BRANCH  23  27
ATOM     27  C   UNL     1      16.095  -0.707  52.296  0.00  0.00    +0.000 C 
ATOM     28  C   UNL     1      15.220  -1.485  51.311  0.00  0.00    +0.000 C 
ENDBRANCH  23  27
ENDBRANCH  22  23
ENDBRANCH  21  22
ENDBRANCH  19  21
ENDBRANCH   1  19
TORSDOF 6
ENDMDL
