MODEL 1
REMARK VINA RESULT:    -7.651      0.000      0.000
REMARK INTER + INTRA:         -13.884
REMARK INTER:                 -12.348
REMARK INTRA:                  -1.536
REMARK UNBOUND:                -1.536
REMARK  Name = 
REMARK  14 active torsions:
REMARK  status: ('A' for Active; 'I' for Inactive)
REMARK    1  A    between atoms: C_1  and  C_2
REMARK    2  A    between atoms: C_2  and  C_3
REMARK    3  A    between atoms: C_2  and  C_4
REMARK    4  A    between atoms: C_2  and  N_5
REMARK    5  A    between atoms: N_5  and  C_6
REMARK    6  A    between atoms: C_6  and  C_7
REMARK    7  A    between atoms: C_7  and  O_8
REMARK    8  A    between atoms: C_7  and  C_9
REMARK    9  A    between atoms: C_9  and  O_10
REMARK   10  A    between atoms: O_10  and  C_11
REMARK   11  A    between atoms: C_11  and  C_13
REMARK   12  A    between atoms: C_17  and  O_18
REMARK   13  A    between atoms: O_18  and  C_19
REMARK   14  A    between atoms: C_19  and  C_20
REMARK                            x       y       z     vdW  Elec       q    Type
REMARK                         _______ _______ _______ _____ _____    ______ ____
ROOT
ATOM      1  C   UNL     1      21.542   1.861  51.817  0.00  0.00    +0.000 C 
ATOM      2  O   UNL     1      20.678   1.551  51.010  0.00  0.00    +0.000 OA
ENDROOT
BRANCH   1   3
ATOM      3  C   UNL     1      21.992   0.961  52.909  0.00  0.00    +0.000 A 
ATOM      4  C   UNL     1      21.019   0.410  53.749  0.00  0.00    +0.000 A 
ATOM      5  C   UNL     1      21.362  -0.615  54.633  0.00  0.00    +0.000 A 
ATOM      6  C   UNL     1      22.679  -1.068  54.698  0.00  0.00    +0.000 A 
ATOM      7  C   UNL     1      23.671  -0.451  53.935  0.00  0.00    +0.000 A 
ATOM      8  C   UNL     1      23.325   0.544  53.024  0.00  0.00    +0.000 A 
BRANCH   7   9
ATOM      9  O   UNL     1      25.005  -0.764  53.976  0.00  0.00    +0.000 OA
BRANCH   9  10
ATOM     10  C   UNL     1      25.743  -0.453  52.790  0.00  0.00    +0.000 C 
BRANCH  10  11
ATOM     11  C   UNL     1      27.234  -0.566  53.023  0.00  0.00    +0.000 A 
ATOM     12  C   UNL     1      28.010   0.532  53.415  0.00  0.00    +0.000 A 
ATOM     13  C   UNL     1      29.364   0.371  53.720  0.00  0.00    +0.000 A 
ATOM     14  C   UNL     1      29.951  -0.891  53.647  0.00  0.00    +0.000 A 
ATOM     15  C   UNL     1      29.190  -1.992  53.266  0.00  0.00    +0.000 A 
ATOM     16  C   UNL     1      27.837  -1.832  52.957  0.00  0.00    +0.000 A 
ENDBRANCH  10  11
ENDBRANCH   9  10
ENDBRANCH   7   9
ENDBRANCH   1   3
BRANCH   1  17
ATOM     17  O   UNL     1      22.346   2.949  51.734  0.00  0.00    +0.000 OA
BRANCH  17  18
ATOM     18  C   UNL     1      21.924   4.077  52.528  0.00  0.00    +0.000 C 
BRANCH  18  19
ATOM     19  C   UNL     1      22.931   5.225  52.320  0.00  0.00    +0.000 C 
BRANCH  19  20
ATOM     20  O   UNL     1      23.837   5.334  53.431  0.00  0.00    +0.000 OA
ATOM     21  H   UNL     1      24.131   4.448  53.696  0.00  0.00    +0.000 HD
ENDBRANCH  19  20
BRANCH  19  22
ATOM     22  C   UNL     1      23.763   5.066  51.032  0.00  0.00    +0.000 C 
BRANCH  22  23
ATOM     23  N   UNL     1      25.046   4.404  51.274  0.00  0.00    +0.000 N 
ATOM     24  H   UNL     1      25.711   5.112  51.583  0.00  0.00    +0.000 HD
ATOM     25  H   UNL     1      24.859   3.680  51.967  0.00  0.00    +0.000 HD
BRANCH  23  27
ATOM     26  C   UNL     1      26.526   4.631  49.269  0.00  0.00    +0.000 C 
ATOM     27  C   UNL     1      25.635   3.707  50.114  0.00  0.00    +0.000 C 
ATOM     28  C   UNL     1      24.561   3.062  49.220  0.00  0.00    +0.000 C 
ATOM     29  C   UNL     1      26.516   2.585  50.701  0.00  0.00    +0.000 C 
ENDBRANCH  23  27
ENDBRANCH  22  23
ENDBRANCH  19  22
ENDBRANCH  18  19
ENDBRANCH  17  18
ENDBRANCH   1  17
TORSDOF 11
ENDMDL
MODEL 2
REMARK VINA RESULT:    -7.433      1.509      2.057
REMARK INTER + INTRA:         -13.533
REMARK INTER:                 -12.423
REMARK INTRA:                  -1.110
REMARK UNBOUND:                -1.536
REMARK  Name = 
REMARK  14 active torsions:
REMARK  status: ('A' for Active; 'I' for Inactive)
REMARK    1  A    between atoms: C_1  and  C_2
REMARK    2  A    between atoms: C_2  and  C_3
REMARK    3  A    between atoms: C_2  and  C_4
REMARK    4  A    between atoms: C_2  and  N_5
REMARK    5  A    between atoms: N_5  and  C_6
REMARK    6  A    between atoms: C_6  and  C_7
REMARK    7  A    between atoms: C_7  and  O_8
REMARK    8  A    between atoms: C_7  and  C_9
REMARK    9  A    between atoms: C_9  and  O_10
REMARK   10  A    between atoms: O_10  and  C_11
REMARK   11  A    between atoms: C_11  and  C_13
REMARK   12  A    between atoms: C_17  and  O_18
REMARK   13  A    between atoms: O_18  and  C_19
REMARK   14  A    between atoms: C_19  and  C_20
REMARK                            x       y       z     vdW  Elec       q    Type
REMARK                         _______ _______ _______ _____ _____    ______ ____
ROOT
ATOM      1  C   UNL     1      22.906   2.482  51.289  0.00  0.00    +0.000 C 
ATOM      2  O   UNL     1      22.268   2.341  50.256  0.00  0.00    +0.000 OA
ENDROOT
BRANCH   1   3
ATOM      3  C   UNL     1      22.913   1.477  52.382  0.00  0.00    +0.000 A 
ATOM      4  C   UNL     1      21.689   1.138  52.970  0.00  0.00    +0.000 A 
ATOM      5  C   UNL     1      21.612   0.039  53.829  0.00  0.00    +0.000 A 
ATOM      6  C   UNL     1      22.757  -0.699  54.123  0.00  0.00    +0.000 A 
ATOM      7  C   UNL     1      23.996  -0.302  53.619  0.00  0.00    +0.000 A 
ATOM      8  C   UNL     1      24.070   0.768  52.730  0.00  0.00    +0.000 A 
BRANCH   7   9
ATOM      9  O   UNL     1      25.192  -0.908  53.902  0.00  0.00    +0.000 OA
BRANCH   9  10
ATOM     10  C   UNL     1      26.030  -1.166  52.771  0.00  0.00    +0.000 C 
BRANCH  10  11
ATOM     11  C   UNL     1      27.450  -0.707  53.021  0.00  0.00    +0.000 A 
ATOM     12  C   UNL     1      27.772   0.642  53.219  0.00  0.00    +0.000 A 
ATOM     13  C   UNL     1      29.076   1.020  53.548  0.00  0.00    +0.000 A 
ATOM     14  C   UNL     1      30.068   0.052  53.693  0.00  0.00    +0.000 A 
ATOM     15  C   UNL     1      29.761  -1.293  53.506  0.00  0.00    +0.000 A 
ATOM     16  C   UNL     1      28.458  -1.672  53.174  0.00  0.00    +0.000 A 
ENDBRANCH  10  11
ENDBRANCH   9  10
ENDBRANCH   7   9
ENDBRANCH   1   3
BRANCH   1  17
ATOM     17  O   UNL     1      23.836   3.442  51.518  0.00  0.00    +0.000 OA
BRANCH  17  18
ATOM     18  C   UNL     1      23.326   4.651  52.115  0.00  0.00    +0.000 C 
BRANCH  18  19
ATOM     19  C   UNL     1      23.842   5.854  51.301  0.00  0.00    +0.000 C 
BRANCH  19  20
ATOM     20  O   UNL     1      24.547   6.786  52.137  0.00  0.00    +0.000 OA
ATOM     21  H   UNL     1      24.238   6.698  53.052  0.00  0.00    +0.000 HD
ENDBRANCH  19  20
BRANCH  19  22
ATOM     22  C   UNL     1      24.775   5.438  50.147  0.00  0.00    +0.000 C 
BRANCH  22  23
ATOM     23  N   UNL     1      26.094   6.069  50.239  0.00  0.00    +0.000 N 
ATOM     24  H   UNL     1      26.104   6.652  51.076  0.00  0.00    +0.000 HD
ATOM     25  H   UNL     1      26.767   5.304  50.257  0.00  0.00    +0.000 HD
BRANCH  23  27
ATOM     26  C   UNL     1      25.322   7.123  48.105  0.00  0.00    +0.000 C 
ATOM     27  C   UNL     1      26.480   6.916  49.094  0.00  0.00    +0.000 C 
ATOM     28  C   UNL     1      27.705   6.357  48.349  0.00  0.00    +0.000 C 
ATOM     29  C   UNL     1      26.859   8.285  49.694  0.00  0.00    +0.000 C 
ENDBRANCH  23  27
ENDBRANCH  22  23
ENDBRANCH  19  22
ENDBRANCH  18  19
ENDBRANCH  17  18
ENDBRANCH   1  17
TORSDOF 11
ENDMDL
MODEL 3
REMARK VINA RESULT:    -7.421      2.217      5.384
REMARK INTER + INTRA:         -13.513
REMARK INTER:                 -11.650
REMARK INTRA:                  -1.863
REMARK UNBOUND:                -1.536
REMARK  Name = 
REMARK  14 active torsions:
REMARK  status: ('A' for Active; 'I' for Inactive)
REMARK    1  A    between atoms: C_1  and  C_2
REMARK    2  A    between atoms: C_2  and  C_3
REMARK    3  A    between atoms: C_2  and  C_4
REMARK    4  A    between atoms: C_2  and  N_5
REMARK    5  A    between atoms: N_5  and  C_6
REMARK    6  A    between atoms: C_6  and  C_7
REMARK    7  A    between atoms: C_7  and  O_8
REMARK    8  A    between atoms: C_7  and  C_9
REMARK    9  A    between atoms: C_9  and  O_10
REMARK   10  A    between atoms: O_10  and  C_11
REMARK   11  A    between atoms: C_11  and  C_13
REMARK   12  A    between atoms: C_17  and  O_18
REMARK   13  A    between atoms: O_18  and  C_19
REMARK   14  A    between atoms: C_19  and  C_20
REMARK                            x       y       z     vdW  Elec       q    Type
REMARK                         _______ _______ _______ _____ _____    ______ ____
ROOT
ATOM      1  C   UNL     1      23.273   5.097  50.136  0.00  0.00    +0.000 C 
ATOM      2  O   UNL     1      22.736   6.195  50.145  0.00  0.00    +0.000 OA
ENDROOT
BRANCH   1   3
ATOM      3  C   UNL     1      22.688   3.914  49.455  0.00  0.00    +0.000 A 
ATOM      4  C   UNL     1      22.554   3.956  48.063  0.00  0.00    +0.000 A 
ATOM      5  C   UNL     1      22.233   2.793  47.359  0.00  0.00    +0.000 A 
ATOM      6  C   UNL     1      22.018   1.599  48.046  0.00  0.00    +0.000 A 
ATOM      7  C   UNL     1      22.051   1.577  49.440  0.00  0.00    +0.000 A 
ATOM      8  C   UNL     1      22.410   2.725  50.143  0.00  0.00    +0.000 A 
BRANCH   7   9
ATOM      9  O   UNL     1      21.782   0.480  50.217  0.00  0.00    +0.000 OA
BRANCH   9  10
ATOM     10  C   UNL     1      20.949   0.725  51.354  0.00  0.00    +0.000 C 
BRANCH  10  11
ATOM     11  C   UNL     1      21.560   0.160  52.618  0.00  0.00    +0.000 A 
ATOM     12  C   UNL     1      20.774  -0.304  53.681  0.00  0.00    +0.000 A 
ATOM     13  C   UNL     1      21.368  -0.912  54.789  0.00  0.00    +0.000 A 
ATOM     14  C   UNL     1      22.751  -1.074  54.840  0.00  0.00    +0.000 A 
ATOM     15  C   UNL     1      23.544  -0.624  53.788  0.00  0.00    +0.000 A 
ATOM     16  C   UNL     1      22.952  -0.012  52.681  0.00  0.00    +0.000 A 
ENDBRANCH  10  11
ENDBRANCH   9  10
ENDBRANCH   7   9
ENDBRANCH   1   3
BRANCH   1  17
ATOM     17  O   UNL     1      24.535   4.832  50.552  0.00  0.00    +0.000 OA
BRANCH  17  18
ATOM     18  C   UNL     1      25.576   5.426  49.749  0.00  0.00    +0.000 C 
BRANCH  18  19
ATOM     19  C   UNL     1      26.549   4.314  49.311  0.00  0.00    +0.000 C 
BRANCH  19  20
ATOM     20  O   UNL     1      27.916   4.748  49.409  0.00  0.00    +0.000 OA
ATOM     21  H   UNL     1      28.486   3.984  49.591  0.00  0.00    +0.000 HD
ENDBRANCH  19  20
BRANCH  19  22
ATOM     22  C   UNL     1      26.393   3.022  50.136  0.00  0.00    +0.000 C 
BRANCH  22  23
ATOM     23  N   UNL     1      27.133   3.072  51.399  0.00  0.00    +0.000 N 
ATOM     24  H   UNL     1      28.123   2.955  51.187  0.00  0.00    +0.000 HD
ATOM     25  H   UNL     1      26.902   3.971  51.820  0.00  0.00    +0.000 HD
BRANCH  23  27
ATOM     26  C   UNL     1      26.517   0.674  51.765  0.00  0.00    +0.000 C 
ATOM     27  C   UNL     1      26.762   2.052  52.400  0.00  0.00    +0.000 C 
ATOM     28  C   UNL     1      25.530   2.471  53.222  0.00  0.00    +0.000 C 
ATOM     29  C   UNL     1      27.968   1.942  53.354  0.00  0.00    +0.000 C 
ENDBRANCH  23  27
ENDBRANCH  22  23
ENDBRANCH  19  22
ENDBRANCH  18  19
ENDBRANCH  17  18
ENDBRANCH   1  17
TORSDOF 11
ENDMDL
MODEL 4
REMARK VINA RESULT:    -7.222      2.143      5.984
REMARK INTER + INTRA:         -13.191
REMARK INTER:                 -11.951
REMARK INTRA:                  -1.240
REMARK UNBOUND:                -1.536
REMARK  Name = 
REMARK  14 active torsions:
REMARK  status: ('A' for Active; 'I' for Inactive)
REMARK    1  A    between atoms: C_1  and  C_2
REMARK    2  A    between atoms: C_2  and  C_3
REMARK    3  A    between atoms: C_2  and  C_4
REMARK    4  A    between atoms: C_2  and  N_5
REMARK    5  A    between atoms: N_5  and  C_6
REMARK    6  A    between atoms: C_6  and  C_7
REMARK    7  A    between atoms: C_7  and  O_8
REMARK    8  A    between atoms: C_7  and  C_9
REMARK    9  A    between atoms: C_9  and  O_10
REMARK   10  A    between atoms: O_10  and  C_11
REMARK   11  A    between atoms: C_11  and  C_13
REMARK   12  A    between atoms: C_17  and  O_18
REMARK   13  A    between atoms: O_18  and  C_19
REMARK   14  A    between atoms: C_19  and  C_20
REMARK                            x       y       z     vdW  Elec       q    Type
REMARK                         _______ _______ _______ _____ _____    ______ ____
ROOT
ATOM      1  C   UNL     1      22.016   0.071  53.147  0.00  0.00    +0.000 C 
ATOM      2  O   UNL     1      21.061   0.431  53.821  0.00  0.00    +0.000 OA
ENDROOT
BRANCH   1   3
ATOM      3  C   UNL     1      22.468   0.792  51.930  0.00  0.00    +0.000 A 
ATOM      4  C   UNL     1      21.648   0.747  50.798  0.00  0.00    +0.000 A 
ATOM      5  C   UNL     1      21.908   1.592  49.717  0.00  0.00    +0.000 A 
ATOM      6  C   UNL     1      23.000   2.458  49.755  0.00  0.00    +0.000 A 
ATOM      7  C   UNL     1      23.878   2.432  50.839  0.00  0.00    +0.000 A 
ATOM      8  C   UNL     1      23.598   1.619  51.936  0.00  0.00    +0.000 A 
BRANCH   7   9
ATOM      9  O   UNL     1      25.020   3.182  50.947  0.00  0.00    +0.000 OA
BRANCH   9  10
ATOM     10  C   UNL     1      25.949   3.041  49.869  0.00  0.00    +0.000 C 
BRANCH  10  11
ATOM     11  C   UNL     1      26.324   4.385  49.285  0.00  0.00    +0.000 A 
ATOM     12  C   UNL     1      25.460   5.486  49.338  0.00  0.00    +0.000 A 
ATOM     13  C   UNL     1      25.878   6.739  48.881  0.00  0.00    +0.000 A 
ATOM     14  C   UNL     1      27.166   6.905  48.377  0.00  0.00    +0.000 A 
ATOM     15  C   UNL     1      28.038   5.821  48.324  0.00  0.00    +0.000 A 
ATOM     16  C   UNL     1      27.621   4.567  48.778  0.00  0.00    +0.000 A 
ENDBRANCH  10  11
ENDBRANCH   9  10
ENDBRANCH   7   9
ENDBRANCH   1   3
BRANCH   1  17
ATOM     17  O   UNL     1      22.910  -0.888  53.493  0.00  0.00    +0.000 OA
BRANCH  17  18
ATOM     18  C   UNL     1      23.027  -1.125  54.910  0.00  0.00    +0.000 C 
BRANCH  18  19
ATOM     19  C   UNL     1      24.475  -0.817  55.340  0.00  0.00    +0.000 C 
BRANCH  19  20
ATOM     20  O   UNL     1      24.973  -1.813  56.249  0.00  0.00    +0.000 OA
ATOM     21  H   UNL     1      24.670  -1.611  57.148  0.00  0.00    +0.000 HD
ENDBRANCH  19  20
BRANCH  19  22
ATOM     22  C   UNL     1      25.446  -0.723  54.147  0.00  0.00    +0.000 C 
BRANCH  22  23
ATOM     23  N   UNL     1      26.788  -0.301  54.550  0.00  0.00    +0.000 N 
ATOM     24  H   UNL     1      26.702   0.586  55.047  0.00  0.00    +0.000 HD
ATOM     25  H   UNL     1      27.159  -1.061  55.119  0.00  0.00    +0.000 HD
BRANCH  23  27
ATOM     26  C   UNL     1      27.076   0.302  52.139  0.00  0.00    +0.000 C 
ATOM     27  C   UNL     1      27.757  -0.111  53.453  0.00  0.00    +0.000 C 
ATOM     28  C   UNL     1      28.618  -1.366  53.219  0.00  0.00    +0.000 C 
ATOM     29  C   UNL     1      28.683   1.036  53.904  0.00  0.00    +0.000 C 
ENDBRANCH  23  27
ENDBRANCH  22  23
ENDBRANCH  19  22
ENDBRANCH  18  19
ENDBRANCH  17  18
ENDBRANCH   1  17
TORSDOF 11
ENDMDL
MODEL 5
REMARK VINA RESULT:    -7.197      1.881      2.784
REMARK INTER + INTRA:         -13.152
REMARK INTER:                 -11.573
REMARK INTRA:                  -1.579
REMARK UNBOUND:                -1.536
REMARK  Name = 
REMARK  14 active torsions:
REMARK  status: ('A' for Active; 'I' for Inactive)
REMARK    1  A    between atoms: C_1  and  C_2
REMARK    2  A    between atoms: C_2  and  C_3
REMARK    3  A    between atoms: C_2  and  C_4
REMARK    4  A    between atoms: C_2  and  N_5
REMARK    5  A    between atoms: N_5  and  C_6
REMARK    6  A    between atoms: C_6  and  C_7
REMARK    7  A    between atoms: C_7  and  O_8
REMARK    8  A    between atoms: C_7  and  C_9
REMARK    9  A    between atoms: C_9  and  O_10
REMARK   10  A    between atoms: O_10  and  C_11
REMARK   11  A    between atoms: C_11  and  C_13
REMARK   12  A    between atoms: C_17  and  O_18
REMARK   13  A    between atoms: O_18  and  C_19
REMARK   14  A    between atoms: C_19  and  C_20
REMARK                            x       y       z     vdW  Elec       q    Type
REMARK                         _______ _______ _______ _____ _____    ______ ____
ROOT
ATOM      1  C   UNL     1      20.996   0.502  51.308  0.00  0.00    +0.000 C 
ATOM      2  O   UNL     1      19.803   0.432  51.048  0.00  0.00    +0.000 OA
ENDROOT
BRANCH   1   3
ATOM      3  C   UNL     1      21.570   0.065  52.606  0.00  0.00    +0.000 A 
ATOM      4  C   UNL     1      20.711  -0.529  53.537  0.00  0.00    +0.000 A 
ATOM      5  C   UNL     1      21.239  -1.164  54.664  0.00  0.00    +0.000 A 
ATOM      6  C   UNL     1      22.617  -1.180  54.874  0.00  0.00    +0.000 A 
ATOM      7  C   UNL     1      23.468  -0.501  54.001  0.00  0.00    +0.000 A 
ATOM      8  C   UNL     1      22.948   0.098  52.855  0.00  0.00    +0.000 A 
BRANCH   7   9
ATOM      9  O   UNL     1      24.825  -0.389  54.151  0.00  0.00    +0.000 OA
BRANCH   9  10
ATOM     10  C   UNL     1      25.592  -0.586  52.960  0.00  0.00    +0.000 C 
BRANCH  10  11
ATOM     11  C   UNL     1      27.073  -0.655  53.262  0.00  0.00    +0.000 A 
ATOM     12  C   UNL     1      27.838  -1.793  52.976  0.00  0.00    +0.000 A 
ATOM     13  C   UNL     1      29.221  -1.786  53.174  0.00  0.00    +0.000 A 
ATOM     14  C   UNL     1      29.853  -0.639  53.648  0.00  0.00    +0.000 A 
ATOM     15  C   UNL     1      29.107   0.502  53.929  0.00  0.00    +0.000 A 
ATOM     16  C   UNL     1      27.724   0.496  53.736  0.00  0.00    +0.000 A 
ENDBRANCH  10  11
ENDBRANCH   9  10
ENDBRANCH   7   9
ENDBRANCH   1   3
BRANCH   1  17
ATOM     17  O   UNL     1      21.981   0.788  50.423  0.00  0.00    +0.000 OA
BRANCH  17  18
ATOM     18  C   UNL     1      21.525   1.212  49.122  0.00  0.00    +0.000 C 
BRANCH  18  19
ATOM     19  C   UNL     1      22.500   2.278  48.585  0.00  0.00    +0.000 C 
BRANCH  19  20
ATOM     20  O   UNL     1      22.152   2.679  47.250  0.00  0.00    +0.000 OA
ATOM     21  H   UNL     1      21.591   3.470  47.286  0.00  0.00    +0.000 HD
ENDBRANCH  19  20
BRANCH  19  22
ATOM     22  C   UNL     1      22.555   3.539  49.470  0.00  0.00    +0.000 C 
BRANCH  22  23
ATOM     23  N   UNL     1      23.632   3.481  50.460  0.00  0.00    +0.000 N 
ATOM     24  H   UNL     1      23.890   2.503  50.585  0.00  0.00    +0.000 HD
ATOM     25  H   UNL     1      24.381   4.065  50.089  0.00  0.00    +0.000 HD
BRANCH  23  27
ATOM     26  C   UNL     1      24.127   3.377  52.910  0.00  0.00    +0.000 C 
ATOM     27  C   UNL     1      23.310   4.037  51.789  0.00  0.00    +0.000 C 
ATOM     28  C   UNL     1      21.809   3.934  52.111  0.00  0.00    +0.000 C 
ATOM     29  C   UNL     1      23.691   5.530  51.722  0.00  0.00    +0.000 C 
ENDBRANCH  23  27
ENDBRANCH  22  23
ENDBRANCH  19  22
ENDBRANCH  18  19
ENDBRANCH  17  18
ENDBRANCH   1  17
TORSDOF 11
ENDMDL
MODEL 6
REMARK VINA RESULT:    -7.108      3.921      6.441
REMARK INTER + INTRA:         -13.008
REMARK INTER:                 -11.476
REMARK INTRA:                  -1.531
REMARK UNBOUND:                -1.536
REMARK  Name = 
REMARK  14 active torsions:
REMARK  status: ('A' for Active; 'I' for Inactive)
REMARK    1  A    between atoms: C_1  and  C_2
REMARK    2  A    between atoms: C_2  and  C_3
REMARK    3  A    between atoms: C_2  and  C_4
REMARK    4  A    between atoms: C_2  and  N_5
REMARK    5  A    between atoms: N_5  and  C_6
REMARK    6  A    between atoms: C_6  and  C_7
REMARK    7  A    between atoms: C_7  and  O_8
REMARK    8  A    between atoms: C_7  and  C_9
REMARK    9  A    between atoms: C_9  and  O_10
REMARK   10  A    between atoms: O_10  and  C_11
REMARK   11  A    between atoms: C_11  and  C_13
REMARK   12  A    between atoms: C_17  and  O_18
REMARK   13  A    between atoms: O_18  and  C_19
REMARK   14  A    between atoms: C_19  and  C_20
REMARK                            x       y       z     vdW  Elec       q    Type
REMARK                         _______ _______ _______ _____ _____    ______ ____
ROOT
ATOM      1  C   UNL     1      26.322   7.147  48.430  0.00  0.00    +0.000 C 
ATOM      2  O   UNL     1      27.016   7.198  47.425  0.00  0.00    +0.000 OA
ENDROOT
BRANCH   1   3
ATOM      3  C   UNL     1      25.680   5.896  48.909  0.00  0.00    +0.000 A 
ATOM      4  C   UNL     1      24.292   5.779  48.778  0.00  0.00    +0.000 A 
ATOM      5  C   UNL     1      23.675   4.545  48.993  0.00  0.00    +0.000 A 
ATOM      6  C   UNL     1      24.437   3.439  49.366  0.00  0.00    +0.000 A 
ATOM      7  C   UNL     1      25.806   3.577  49.597  0.00  0.00    +0.000 A 
ATOM      8  C   UNL     1      26.431   4.796  49.344  0.00  0.00    +0.000 A 
BRANCH   7   9
ATOM      9  O   UNL     1      26.635   2.579  50.037  0.00  0.00    +0.000 OA
BRANCH   9  10
ATOM     10  C   UNL     1      26.848   2.539  51.451  0.00  0.00    +0.000 C 
BRANCH  10  11
ATOM     11  C   UNL     1      26.158   1.347  52.079  0.00  0.00    +0.000 A 
ATOM     12  C   UNL     1      26.825   0.136  52.304  0.00  0.00    +0.000 A 
ATOM     13  C   UNL     1      26.190  -0.910  52.977  0.00  0.00    +0.000 A 
ATOM     14  C   UNL     1      24.885  -0.751  53.441  0.00  0.00    +0.000 A 
ATOM     15  C   UNL     1      24.212   0.449  53.230  0.00  0.00    +0.000 A 
ATOM     16  C   UNL     1      24.846   1.494  52.554  0.00  0.00    +0.000 A 
ENDBRANCH  10  11
ENDBRANCH   9  10
ENDBRANCH   7   9
ENDBRANCH   1   3
BRANCH   1  17
ATOM     17  O   UNL     1      26.192   8.132  49.352  0.00  0.00    +0.000 OA
BRANCH  17  18
ATOM     18  C   UNL     1      26.587   9.443  48.898  0.00  0.00    +0.000 C 
BRANCH  18  19
ATOM     19  C   UNL     1      27.751   9.936  49.779  0.00  0.00    +0.000 C 
BRANCH  19  20
ATOM     20  O   UNL     1      27.614   9.473  51.133  0.00  0.00    +0.000 OA
ATOM     21  H   UNL     1      28.494   9.348  51.522  0.00  0.00    +0.000 HD
ENDBRANCH  19  20
BRANCH  19  22
ATOM     22  C   UNL     1      29.130   9.489  49.254  0.00  0.00    +0.000 C 
BRANCH  22  23
ATOM     23  N   UNL     1      29.331   8.043  49.370  0.00  0.00    +0.000 N 
ATOM     24  H   UNL     1      29.450   7.822  50.359  0.00  0.00    +0.000 HD
ATOM     25  H   UNL     1      28.510   7.613  48.945  0.00  0.00    +0.000 HD
BRANCH  23  27
ATOM     26  C   UNL     1      30.229   6.086  48.096  0.00  0.00    +0.000 C 
ATOM     27  C   UNL     1      30.493   7.497  48.643  0.00  0.00    +0.000 C 
ATOM     28  C   UNL     1      31.766   7.489  49.509  0.00  0.00    +0.000 C 
ATOM     29  C   UNL     1      30.725   8.446  47.449  0.00  0.00    +0.000 C 
ENDBRANCH  23  27
ENDBRANCH  22  23
ENDBRANCH  19  22
ENDBRANCH  18  19
ENDBRANCH  17  18
ENDBRANCH   1  17
TORSDOF 11
ENDMDL
MODEL 7
REMARK VINA RESULT:    -7.082      3.440      6.495
REMARK INTER + INTRA:         -12.966
REMARK INTER:                 -11.833
REMARK INTRA:                  -1.134
REMARK UNBOUND:                -1.536
REMARK  Name = 
REMARK  14 active torsions:
REMARK  status: ('A' for Active; 'I' for Inactive)
REMARK    1  A    between atoms: C_1  and  C_2
REMARK    2  A    between atoms: C_2  and  C_3
REMARK    3  A    between atoms: C_2  and  C_4
REMARK    4  A    between atoms: C_2  and  N_5
REMARK    5  A    between atoms: N_5  and  C_6
REMARK    6  A    between atoms: C_6  and  C_7
REMARK    7  A    between atoms: C_7  and  O_8
REMARK    8  A    between atoms: C_7  and  C_9
REMARK    9  A    between atoms: C_9  and  O_10
REMARK   10  A    between atoms: O_10  and  C_11
REMARK   11  A    between atoms: C_11  and  C_13
REMARK   12  A    between atoms: C_17  and  O_18
REMARK   13  A    between atoms: O_18  and  C_19
REMARK   14  A    between atoms: C_19  and  C_20
REMARK                            x       y       z     vdW  Elec       q    Type
REMARK                         _______ _______ _______ _____ _____    ______ ____
ROOT
ATOM      1  C   UNL     1      25.286   6.957  50.005  0.00  0.00    +0.000 C 
ATOM      2  O   UNL     1      24.225   7.554  49.898  0.00  0.00    +0.000 OA
ENDROOT
BRANCH   1   3
ATOM      3  C   UNL     1      25.389   5.476  49.988  0.00  0.00    +0.000 A 
ATOM      4  C   UNL     1      26.430   4.898  49.254  0.00  0.00    +0.000 A 
ATOM      5  C   UNL     1      26.708   3.536  49.395  0.00  0.00    +0.000 A 
ATOM      6  C   UNL     1      25.932   2.750  50.244  0.00  0.00    +0.000 A 
ATOM      7  C   UNL     1      24.830   3.301  50.898  0.00  0.00    +0.000 A 
ATOM      8  C   UNL     1      24.574   4.667  50.791  0.00  0.00    +0.000 A 
BRANCH   7   9
ATOM      9  O   UNL     1      23.957   2.607  51.694  0.00  0.00    +0.000 OA
BRANCH   9  10
ATOM     10  C   UNL     1      24.334   1.258  51.984  0.00  0.00    +0.000 C 
BRANCH  10  11
ATOM     11  C   UNL     1      23.315   0.580  52.874  0.00  0.00    +0.000 A 
ATOM     12  C   UNL     1      23.665  -0.456  53.750  0.00  0.00    +0.000 A 
ATOM     13  C   UNL     1      22.721  -0.991  54.630  0.00  0.00    +0.000 A 
ATOM     14  C   UNL     1      21.422  -0.487  54.651  0.00  0.00    +0.000 A 
ATOM     15  C   UNL     1      21.061   0.547  53.791  0.00  0.00    +0.000 A 
ATOM     16  C   UNL     1      22.003   1.080  52.908  0.00  0.00    +0.000 A 
ENDBRANCH  10  11
ENDBRANCH   9  10
ENDBRANCH   7   9
ENDBRANCH   1   3
BRANCH   1  17
ATOM     17  O   UNL     1      26.518   7.520  49.954  0.00  0.00    +0.000 OA
BRANCH  17  18
ATOM     18  C   UNL     1      26.582   8.776  49.249  0.00  0.00    +0.000 C 
BRANCH  18  19
ATOM     19  C   UNL     1      27.721   9.620  49.854  0.00  0.00    +0.000 C 
BRANCH  19  20
ATOM     20  O   UNL     1      27.710   9.558  51.290  0.00  0.00    +0.000 OA
ATOM     21  H   UNL     1      26.802   9.413  51.601  0.00  0.00    +0.000 HD
ENDBRANCH  19  20
BRANCH  19  22
ATOM     22  C   UNL     1      29.115   9.184  49.363  0.00  0.00    +0.000 C 
BRANCH  22  23
ATOM     23  N   UNL     1      29.213   7.735  49.173  0.00  0.00    +0.000 N 
ATOM     24  H   UNL     1      29.214   7.298  50.094  0.00  0.00    +0.000 HD
ATOM     25  H   UNL     1      28.417   7.477  48.591  0.00  0.00    +0.000 HD
BRANCH  23  27
ATOM     26  C   UNL     1      31.677   7.322  49.315  0.00  0.00    +0.000 C 
ATOM     27  C   UNL     1      30.410   7.264  48.448  0.00  0.00    +0.000 C 
ATOM     28  C   UNL     1      30.639   8.043  47.141  0.00  0.00    +0.000 C 
ATOM     29  C   UNL     1      30.131   5.789  48.091  0.00  0.00    +0.000 C 
ENDBRANCH  23  27
ENDBRANCH  22  23
ENDBRANCH  19  22
ENDBRANCH  18  19
ENDBRANCH  17  18
ENDBRANCH   1  17
TORSDOF 11
ENDMDL
MODEL 8
REMARK VINA RESULT:    -6.875      2.268      3.219
REMARK INTER + INTRA:         -12.632
REMARK INTER:                 -11.104
REMARK INTRA:                  -1.527
REMARK UNBOUND:                -1.536
REMARK  Name = 
REMARK  14 active torsions:
REMARK  status: ('A' for Active; 'I' for Inactive)
REMARK    1  A    between atoms: C_1  and  C_2
REMARK    2  A    between atoms: C_2  and  C_3
REMARK    3  A    between atoms: C_2  and  C_4
REMARK    4  A    between atoms: C_2  and  N_5
REMARK    5  A    between atoms: N_5  and  C_6
REMARK    6  A    between atoms: C_6  and  C_7
REMARK    7  A    between atoms: C_7  and  O_8
REMARK    8  A    between atoms: C_7  and  C_9
REMARK    9  A    between atoms: C_9  and  O_10
REMARK   10  A    between atoms: O_10  and  C_11
REMARK   11  A    between atoms: C_11  and  C_13
REMARK   12  A    between atoms: C_17  and  O_18
REMARK   13  A    between atoms: O_18  and  C_19
REMARK   14  A    between atoms: C_19  and  C_20
REMARK                            x       y       z     vdW  Elec       q    Type
REMARK                         _______ _______ _______ _____ _____    ______ ____
ROOT
ATOM      1  C   UNL     1      20.039  -0.271  53.064  0.00  0.00    +0.000 C 
ATOM      2  O   UNL     1      19.137  -0.911  53.584  0.00  0.00    +0.000 OA
ENDROOT
BRANCH   1   3
ATOM      3  C   UNL     1      21.433  -0.269  53.576  0.00  0.00    +0.000 A 
ATOM      4  C   UNL     1      21.712  -1.023  54.721  0.00  0.00    +0.000 A 
ATOM      5  C   UNL     1      23.038  -1.242  55.103  0.00  0.00    +0.000 A 
ATOM      6  C   UNL     1      24.079  -0.687  54.360  0.00  0.00    +0.000 A 
ATOM      7  C   UNL     1      23.800   0.148  53.278  0.00  0.00    +0.000 A 
ATOM      8  C   UNL     1      22.481   0.336  52.871  0.00  0.00    +0.000 A 
BRANCH   7   9
ATOM      9  O   UNL     1      24.740   0.805  52.527  0.00  0.00    +0.000 OA
BRANCH   9  10
ATOM     10  C   UNL     1      25.894   0.035  52.181  0.00  0.00    +0.000 C 
BRANCH  10  11
ATOM     11  C   UNL     1      27.117   0.503  52.940  0.00  0.00    +0.000 A 
ATOM     12  C   UNL     1      28.068  -0.394  53.444  0.00  0.00    +0.000 A 
ATOM     13  C   UNL     1      29.235   0.075  54.050  0.00  0.00    +0.000 A 
ATOM     14  C   UNL     1      29.468   1.446  54.149  0.00  0.00    +0.000 A 
ATOM     15  C   UNL     1      28.535   2.349  53.648  0.00  0.00    +0.000 A 
ATOM     16  C   UNL     1      27.366   1.880  53.044  0.00  0.00    +0.000 A 
ENDBRANCH  10  11
ENDBRANCH   9  10
ENDBRANCH   7   9
ENDBRANCH   1   3
BRANCH   1  17
ATOM     17  O   UNL     1      19.971   0.358  51.865  0.00  0.00    +0.000 OA
BRANCH  17  18
ATOM     18  C   UNL     1      18.701   0.977  51.575  0.00  0.00    +0.000 C 
BRANCH  18  19
ATOM     19  C   UNL     1      18.924   2.492  51.399  0.00  0.00    +0.000 C 
BRANCH  19  20
ATOM     20  O   UNL     1      19.607   3.054  52.532  0.00  0.00    +0.000 OA
ATOM     21  H   UNL     1      19.791   3.992  52.366  0.00  0.00    +0.000 HD
ENDBRANCH  19  20
BRANCH  19  22
ATOM     22  C   UNL     1      19.729   2.835  50.131  0.00  0.00    +0.000 C 
BRANCH  22  23
ATOM     23  N   UNL     1      21.153   3.034  50.409  0.00  0.00    +0.000 N 
ATOM     24  H   UNL     1      21.299   4.025  50.599  0.00  0.00    +0.000 HD
ATOM     25  H   UNL     1      21.370   2.424  51.196  0.00  0.00    +0.000 HD
BRANCH  23  27
ATOM     26  C   UNL     1      23.539   2.593  49.799  0.00  0.00    +0.000 C 
ATOM     27  C   UNL     1      22.078   2.640  49.328  0.00  0.00    +0.000 C 
ATOM     28  C   UNL     1      21.957   3.559  48.100  0.00  0.00    +0.000 C 
ATOM     29  C   UNL     1      21.654   1.216  48.912  0.00  0.00    +0.000 C 
ENDBRANCH  23  27
ENDBRANCH  22  23
ENDBRANCH  19  22
ENDBRANCH  18  19
ENDBRANCH  17  18
ENDBRANCH   1  17
TORSDOF 11
ENDMDL
MODEL 9
REMARK VINA RESULT:    -6.735      1.600      2.345
REMARK INTER + INTRA:         -12.406
REMARK INTER:                 -11.180
REMARK INTRA:                  -1.226
REMARK UNBOUND:                -1.536
REMARK  Name = 
REMARK  14 active torsions:
REMARK  status: ('A' for Active; 'I' for Inactive)
REMARK    1  A    between atoms: C_1  and  C_2
REMARK    2  A    between atoms: C_2  and  C_3
REMARK    3  A    between atoms: C_2  and  C_4
REMARK    4  A    between atoms: C_2  and  N_5
REMARK    5  A    between atoms: N_5  and  C_6
REMARK    6  A    between atoms: C_6  and  C_7
REMARK    7  A    between atoms: C_7  and  O_8
REMARK    8  A    between atoms: C_7  and  C_9
REMARK    9  A    between atoms: C_9  and  O_10
REMARK   10  A    between atoms: O_10  and  C_11
REMARK   11  A    between atoms: C_11  and  C_13
REMARK   12  A    between atoms: C_17  and  O_18
REMARK   13  A    between atoms: O_18  and  C_19
REMARK   14  A    between atoms: C_19  and  C_20
REMARK                            x       y       z     vdW  Elec       q    Type
REMARK                         _______ _______ _______ _____ _____    ______ ____
ROOT
ATOM      1  C   UNL     1      22.101   1.547  51.059  0.00  0.00    +0.000 C 
ATOM      2  O   UNL     1      21.577   1.059  50.068  0.00  0.00    +0.000 OA
ENDROOT
BRANCH   1   3
ATOM      3  C   UNL     1      22.334   0.785  52.312  0.00  0.00    +0.000 A 
ATOM      4  C   UNL     1      21.216   0.341  53.028  0.00  0.00    +0.000 A 
ATOM      5  C   UNL     1      21.378  -0.570  54.074  0.00  0.00    +0.000 A 
ATOM      6  C   UNL     1      22.652  -1.014  54.422  0.00  0.00    +0.000 A 
ATOM      7  C   UNL     1      23.776  -0.496  53.777  0.00  0.00    +0.000 A 
ATOM      8  C   UNL     1      23.616   0.383  52.707  0.00  0.00    +0.000 A 
BRANCH   7   9
ATOM      9  O   UNL     1      25.075  -0.803  54.088  0.00  0.00    +0.000 OA
BRANCH   9  10
ATOM     10  C   UNL     1      25.983  -0.810  52.983  0.00  0.00    +0.000 C 
BRANCH  10  11
ATOM     11  C   UNL     1      27.195   0.053  53.261  0.00  0.00    +0.000 A 
ATOM     12  C   UNL     1      27.125   1.452  53.274  0.00  0.00    +0.000 A 
ATOM     13  C   UNL     1      28.238   2.215  53.634  0.00  0.00    +0.000 A 
ATOM     14  C   UNL     1      29.429   1.587  53.995  0.00  0.00    +0.000 A 
ATOM     15  C   UNL     1      29.511   0.197  53.993  0.00  0.00    +0.000 A 
ATOM     16  C   UNL     1      28.400  -0.567  53.630  0.00  0.00    +0.000 A 
ENDBRANCH  10  11
ENDBRANCH   9  10
ENDBRANCH   7   9
ENDBRANCH   1   3
BRANCH   1  17
ATOM     17  O   UNL     1      22.717   2.754  51.113  0.00  0.00    +0.000 OA
BRANCH  17  18
ATOM     18  C   UNL     1      22.110   3.705  52.011  0.00  0.00    +0.000 C 
BRANCH  18  19
ATOM     19  C   UNL     1      23.215   4.622  52.572  0.00  0.00    +0.000 C 
BRANCH  19  20
ATOM     20  O   UNL     1      24.240   3.860  53.231  0.00  0.00    +0.000 OA
ATOM     21  H   UNL     1      24.819   4.460  53.728  0.00  0.00    +0.000 HD
ENDBRANCH  19  20
BRANCH  19  22
ATOM     22  C   UNL     1      23.880   5.490  51.486  0.00  0.00    +0.000 C 
BRANCH  22  23
ATOM     23  N   UNL     1      23.301   6.833  51.410  0.00  0.00    +0.000 N 
ATOM     24  H   UNL     1      22.586   6.906  52.133  0.00  0.00    +0.000 HD
ATOM     25  H   UNL     1      24.080   7.478  51.530  0.00  0.00    +0.000 HD
BRANCH  23  27
ATOM     26  C   UNL     1      23.228   8.507  49.552  0.00  0.00    +0.000 C 
ATOM     27  C   UNL     1      22.677   7.190  50.121  0.00  0.00    +0.000 C 
ATOM     28  C   UNL     1      21.144   7.269  50.223  0.00  0.00    +0.000 C 
ATOM     29  C   UNL     1      23.041   6.049  49.149  0.00  0.00    +0.000 C 
ENDBRANCH  23  27
ENDBRANCH  22  23
ENDBRANCH  19  22
ENDBRANCH  18  19
ENDBRANCH  17  18
ENDBRANCH   1  17
TORSDOF 11
ENDMDL
