MODEL 1
REMARK VINA RESULT:    -9.238      0.000      0.000
REMARK INTER + INTRA:         -14.391
REMARK INTER:                 -13.019
REMARK INTRA:                  -1.372
REMARK UNBOUND:                -1.372
REMARK  Name = 
REMARK  10 active torsions:
REMARK  status: ('A' for Active; 'I' for Inactive)
REMARK    1  A    between atoms: C_1  and  C_2
REMARK    2  A    between atoms: C_2  and  C_3
REMARK    3  A    between atoms: C_4  and  C_5
REMARK    4  A    between atoms: C_5  and  C_6
REMARK    5  A    between atoms: C_6  and  O_7
REMARK    6  A    between atoms: C_6  and  C_16
REMARK    7  A    between atoms: O_7  and  C_8
REMARK    8  A    between atoms: C_8  and  C_10
REMARK    9  A    between atoms: C_21  and  O_22
REMARK   10  A    between atoms: C_25  and  O_26
REMARK                            x       y       z     vdW  Elec       q    Type
REMARK                         _______ _______ _______ _____ _____    ______ ____
ROOT
ATOM      1  C   UNL     1      25.388   0.889  52.708  0.00  0.00    +0.000 C 
ATOM      2  C   UNL     1      25.319  -0.438  52.516  0.00  0.00    +0.000 C 
ATOM      3  C   UNL     1      26.472  -1.306  52.796  0.00  0.00    +0.000 C 
ATOM      4  O   UNL     1      26.447  -2.489  52.469  0.00  0.00    +0.000 OA
ATOM      5  C   UNL     1      27.713  -0.674  53.264  0.00  0.00    +0.000 A 
ATOM      6  C   UNL     1      28.917  -1.394  53.229  0.00  0.00    +0.000 A 
ATOM      7  C   UNL     1      30.098  -0.799  53.649  0.00  0.00    +0.000 A 
ATOM      8  C   UNL     1      30.097   0.534  54.065  0.00  0.00    +0.000 A 
ATOM      9  C   UNL     1      28.915   1.270  54.047  0.00  0.00    +0.000 A 
ATOM     10  C   UNL     1      27.704   0.657  53.664  0.00  0.00    +0.000 A 
ATOM     11  C   UNL     1      26.443   1.432  53.598  0.00  0.00    +0.000 C 
ATOM     12  O   UNL     1      26.249   2.465  54.220  0.00  0.00    +0.000 OA
ENDROOT
BRANCH   6  13
ATOM     13  O   UNL     1      29.019  -2.672  52.748  0.00  0.00    +0.000 OA
ATOM     14  H   UNL     1      29.459  -3.329  53.253  0.00  0.00    +0.000 HD
ENDBRANCH   6  13
BRANCH   9  15
ATOM     15  O   UNL     1      28.952   2.596  54.359  0.00  0.00    +0.000 OA
ATOM     16  H   UNL     1      28.358   3.191  53.946  0.00  0.00    +0.000 HD
ENDBRANCH   9  15
BRANCH   1  17
ATOM     17  C   UNL     1      24.709   1.921  51.826  0.00  0.00    +0.000 C 
BRANCH  17  18
ATOM     18  C   UNL     1      25.592   2.462  50.673  0.00  0.00    +0.000 C 
BRANCH  18  22
ATOM     19  C   UNL     1      27.234   4.420  48.999  0.00  0.00    +0.000 C 
ATOM     20  C   UNL     1      25.763   4.578  49.272  0.00  0.00    +0.000 C 
ATOM     21  C   UNL     1      25.093   5.814  48.740  0.00  0.00    +0.000 C 
ATOM     22  C   UNL     1      25.048   3.702  50.003  0.00  0.00    +0.000 C 
ENDBRANCH  18  22
ENDBRANCH  17  18
BRANCH  17  23
ATOM     23  O   UNL     1      23.425   1.530  51.314  0.00  0.00    +0.000 OA
BRANCH  23  24
ATOM     24  C   UNL     1      22.392   2.045  52.046  0.00  0.00    +0.000 C 
ATOM     25  O   UNL     1      22.116   3.235  52.164  0.00  0.00    +0.000 OA
BRANCH  24  26
ATOM     26  C   UNL     1      21.490   0.980  52.533  0.00  0.00    +0.000 A 
ATOM     27  C   UNL     1      21.883   0.248  53.665  0.00  0.00    +0.000 A 
ATOM     28  C   UNL     1      21.019  -0.686  54.230  0.00  0.00    +0.000 A 
ATOM     29  C   UNL     1      19.769  -0.908  53.652  0.00  0.00    +0.000 A 
ATOM     30  C   UNL     1      19.395  -0.213  52.500  0.00  0.00    +0.000 A 
ATOM     31  C   UNL     1      20.255   0.728  51.932  0.00  0.00    +0.000 A 
ENDBRANCH  24  26
ENDBRANCH  23  24
ENDBRANCH  17  23
ENDBRANCH   1  17
TORSDOF 8
ENDMDL
MODEL 2
REMARK VINA RESULT:    -9.193      0.946      5.098
REMARK INTER + INTRA:         -14.328
REMARK INTER:                 -13.270
REMARK INTRA:                  -1.058
REMARK UNBOUND:                -1.372
REMARK  Name = 
REMARK  10 active torsions:
REMARK  status: ('A' for Active; 'I' for Inactive)
REMARK    1  A    between atoms: C_1  and  C_2
REMARK    2  A    between atoms: C_2  and  C_3
REMARK    3  A    between atoms: C_4  and  C_5
REMARK    4  A    between atoms: C_5  and  C_6
REMARK    5  A    between atoms: C_6  and  O_7
REMARK    6  A    between atoms: C_6  and  C_16
REMARK    7  A    between atoms: O_7  and  C_8
REMARK    8  A    between atoms: C_8  and  C_10
REMARK    9  A    between atoms: C_21  and  O_22
REMARK   10  A    between atoms: C_25  and  O_26
REMARK                            x       y       z     vdW  Elec       q    Type
REMARK                         _______ _______ _______ _____ _____    ______ ____
ROOT
ATOM      1  C   UNL     1      25.246   0.786  52.734  0.00  0.00    +0.000 C 
ATOM      2  C   UNL     1      25.223  -0.540  52.525  0.00  0.00    +0.000 C 
ATOM      3  C   UNL     1      26.411  -1.368  52.775  0.00  0.00    +0.000 C 
ATOM      4  O   UNL     1      26.425  -2.546  52.432  0.00  0.00    +0.000 OA
ATOM      5  C   UNL     1      27.635  -0.697  53.231  0.00  0.00    +0.000 A 
ATOM      6  C   UNL     1      28.865  -1.371  53.167  0.00  0.00    +0.000 A 
ATOM      7  C   UNL     1      30.030  -0.738  53.576  0.00  0.00    +0.000 A 
ATOM      8  C   UNL     1      29.987   0.588  54.010  0.00  0.00    +0.000 A 
ATOM      9  C   UNL     1      28.779   1.280  54.022  0.00  0.00    +0.000 A 
ATOM     10  C   UNL     1      27.585   0.628  53.650  0.00  0.00    +0.000 A 
ATOM     11  C   UNL     1      26.295   1.357  53.615  0.00  0.00    +0.000 C 
ATOM     12  O   UNL     1      26.073   2.373  54.254  0.00  0.00    +0.000 OA
ENDROOT
BRANCH   6  13
ATOM     13  O   UNL     1      29.005  -2.638  52.667  0.00  0.00    +0.000 OA
ATOM     14  H   UNL     1      29.152  -3.358  53.249  0.00  0.00    +0.000 HD
ENDBRANCH   6  13
BRANCH   9  15
ATOM     15  O   UNL     1      28.772   2.602  54.351  0.00  0.00    +0.000 OA
ATOM     16  H   UNL     1      27.963   3.072  54.385  0.00  0.00    +0.000 HD
ENDBRANCH   9  15
BRANCH   1  17
ATOM     17  C   UNL     1      24.515   1.805  51.878  0.00  0.00    +0.000 C 
BRANCH  17  18
ATOM     18  C   UNL     1      23.246   2.404  52.535  0.00  0.00    +0.000 C 
BRANCH  18  22
ATOM     19  C   UNL     1      21.795   0.154  54.006  0.00  0.00    +0.000 C 
ATOM     20  C   UNL     1      21.309   0.765  52.721  0.00  0.00    +0.000 C 
ATOM     21  C   UNL     1      20.073   0.175  52.101  0.00  0.00    +0.000 C 
ATOM     22  C   UNL     1      21.952   1.764  52.088  0.00  0.00    +0.000 C 
ENDBRANCH  18  22
ENDBRANCH  17  18
BRANCH  17  23
ATOM     23  O   UNL     1      25.339   2.861  51.358  0.00  0.00    +0.000 OA
BRANCH  23  24
ATOM     24  C   UNL     1      24.980   3.228  50.092  0.00  0.00    +0.000 C 
ATOM     25  O   UNL     1      23.999   2.824  49.475  0.00  0.00    +0.000 OA
BRANCH  24  26
ATOM     26  C   UNL     1      25.807   4.349  49.599  0.00  0.00    +0.000 A 
ATOM     27  C   UNL     1      27.095   4.059  49.119  0.00  0.00    +0.000 A 
ATOM     28  C   UNL     1      27.868   5.061  48.539  0.00  0.00    +0.000 A 
ATOM     29  C   UNL     1      27.367   6.360  48.458  0.00  0.00    +0.000 A 
ATOM     30  C   UNL     1      26.105   6.659  48.976  0.00  0.00    +0.000 A 
ATOM     31  C   UNL     1      25.323   5.658  49.554  0.00  0.00    +0.000 A 
ENDBRANCH  24  26
ENDBRANCH  23  24
ENDBRANCH  17  23
ENDBRANCH   1  17
TORSDOF 8
ENDMDL
MODEL 3
REMARK VINA RESULT:    -9.014      2.276      6.668
REMARK INTER + INTRA:         -14.075
REMARK INTER:                 -12.442
REMARK INTRA:                  -1.633
REMARK UNBOUND:                -1.372
REMARK  Name = 
REMARK  10 active torsions:
REMARK  status: ('A' for Active; 'I' for Inactive)
REMARK    1  A    between atoms: C_1  and  C_2
REMARK    2  A    between atoms: C_2  and  C_3
REMARK    3  A    between atoms: C_4  and  C_5
REMARK    4  A    between atoms: C_5  and  C_6
REMARK    5  A    between atoms: C_6  and  O_7
REMARK    6  A    between atoms: C_6  and  C_16
REMARK    7  A    between atoms: O_7  and  C_8
REMARK    8  A    between atoms: C_8  and  C_10
REMARK    9  A    between atoms: C_21  and  O_22
REMARK   10  A    between atoms: C_25  and  O_26
REMARK                            x       y       z     vdW  Elec       q    Type
REMARK                         _______ _______ _______ _____ _____    ______ ____
ROOT
ATOM      1  C   UNL     1      23.684   1.245  52.309  0.00  0.00    +0.000 C 
ATOM      2  C   UNL     1      23.860   0.319  53.265  0.00  0.00    +0.000 C 
ATOM      3  C   UNL     1      22.757  -0.559  53.682  0.00  0.00    +0.000 C 
ATOM      4  O   UNL     1      22.887  -1.290  54.660  0.00  0.00    +0.000 OA
ATOM      5  C   UNL     1      21.448  -0.373  53.043  0.00  0.00    +0.000 A 
ATOM      6  C   UNL     1      20.303  -0.942  53.622  0.00  0.00    +0.000 A 
ATOM      7  C   UNL     1      19.058  -0.754  53.038  0.00  0.00    +0.000 A 
ATOM      8  C   UNL     1      18.938   0.040  51.896  0.00  0.00    +0.000 A 
ATOM      9  C   UNL     1      20.062   0.653  51.350  0.00  0.00    +0.000 A 
ATOM     10  C   UNL     1      21.336   0.429  51.914  0.00  0.00    +0.000 A 
ATOM     11  C   UNL     1      22.539   1.105  51.375  0.00  0.00    +0.000 C 
ATOM     12  O   UNL     1      22.620   1.540  50.236  0.00  0.00    +0.000 OA
ENDROOT
BRANCH   6  13
ATOM     13  O   UNL     1      20.323  -1.655  54.791  0.00  0.00    +0.000 OA
ATOM     14  H   UNL     1      19.612  -1.581  55.397  0.00  0.00    +0.000 HD
ENDBRANCH   6  13
BRANCH   9  15
ATOM     15  O   UNL     1      19.911   1.506  50.298  0.00  0.00    +0.000 OA
ATOM     16  H   UNL     1      20.657   1.771  49.799  0.00  0.00    +0.000 HD
ENDBRANCH   9  15
BRANCH   1  17
ATOM     17  C   UNL     1      24.339   2.614  52.307  0.00  0.00    +0.000 C 
BRANCH  17  18
ATOM     18  C   UNL     1      23.475   3.742  52.927  0.00  0.00    +0.000 C 
BRANCH  18  22
ATOM     19  C   UNL     1      20.934   4.546  51.433  0.00  0.00    +0.000 C 
ATOM     20  C   UNL     1      22.219   5.325  51.382  0.00  0.00    +0.000 C 
ATOM     21  C   UNL     1      22.260   6.530  50.484  0.00  0.00    +0.000 C 
ATOM     22  C   UNL     1      23.330   4.966  52.054  0.00  0.00    +0.000 C 
ENDBRANCH  18  22
ENDBRANCH  17  18
BRANCH  17  23
ATOM     23  O   UNL     1      25.662   2.652  52.865  0.00  0.00    +0.000 OA
BRANCH  23  24
ATOM     24  C   UNL     1      26.613   2.221  51.984  0.00  0.00    +0.000 C 
ATOM     25  O   UNL     1      26.815   2.675  50.862  0.00  0.00    +0.000 OA
BRANCH  24  26
ATOM     26  C   UNL     1      27.537   1.255  52.615  0.00  0.00    +0.000 A 
ATOM     27  C   UNL     1      28.615   1.761  53.359  0.00  0.00    +0.000 A 
ATOM     28  C   UNL     1      29.446   0.896  54.066  0.00  0.00    +0.000 A 
ATOM     29  C   UNL     1      29.216  -0.479  54.013  0.00  0.00    +0.000 A 
ATOM     30  C   UNL     1      28.171  -0.986  53.237  0.00  0.00    +0.000 A 
ATOM     31  C   UNL     1      27.333  -0.124  52.531  0.00  0.00    +0.000 A 
ENDBRANCH  24  26
ENDBRANCH  23  24
ENDBRANCH  17  23
ENDBRANCH   1  17
TORSDOF 8
ENDMDL
MODEL 4
REMARK VINA RESULT:    -9.000      2.679      6.053
REMARK INTER + INTRA:         -14.055
REMARK INTER:                 -11.694
REMARK INTRA:                  -2.361
REMARK UNBOUND:                -1.372
REMARK  Name = 
REMARK  10 active torsions:
REMARK  status: ('A' for Active; 'I' for Inactive)
REMARK    1  A    between atoms: C_1  and  C_2
REMARK    2  A    between atoms: C_2  and  C_3
REMARK    3  A    between atoms: C_4  and  C_5
REMARK    4  A    between atoms: C_5  and  C_6
REMARK    5  A    between atoms: C_6  and  O_7
REMARK    6  A    between atoms: C_6  and  C_16
REMARK    7  A    between atoms: O_7  and  C_8
REMARK    8  A    between atoms: C_8  and  C_10
REMARK    9  A    between atoms: C_21  and  O_22
REMARK   10  A    between atoms: C_25  and  O_26
REMARK                            x       y       z     vdW  Elec       q    Type
REMARK                         _______ _______ _______ _____ _____    ______ ____
ROOT
ATOM      1  C   UNL     1      24.208   1.510  52.077  0.00  0.00    +0.000 C 
ATOM      2  C   UNL     1      25.037   0.859  52.908  0.00  0.00    +0.000 C 
ATOM      3  C   UNL     1      24.545  -0.213  53.785  0.00  0.00    +0.000 C 
ATOM      4  O   UNL     1      25.277  -0.689  54.648  0.00  0.00    +0.000 OA
ATOM      5  C   UNL     1      23.112  -0.531  53.747  0.00  0.00    +0.000 A 
ATOM      6  C   UNL     1      22.541  -1.296  54.776  0.00  0.00    +0.000 A 
ATOM      7  C   UNL     1      21.183  -1.584  54.760  0.00  0.00    +0.000 A 
ATOM      8  C   UNL     1      20.375  -1.076  53.742  0.00  0.00    +0.000 A 
ATOM      9  C   UNL     1      20.927  -0.269  52.750  0.00  0.00    +0.000 A 
ATOM     10  C   UNL     1      22.313  -0.009  52.737  0.00  0.00    +0.000 A 
ATOM     11  C   UNL     1      22.914   0.880  51.715  0.00  0.00    +0.000 C 
ATOM     12  O   UNL     1      22.402   1.111  50.631  0.00  0.00    +0.000 OA
ENDROOT
BRANCH   6  13
ATOM     13  O   UNL     1      23.245  -1.754  55.857  0.00  0.00    +0.000 OA
ATOM     14  H   UNL     1      23.176  -1.314  56.682  0.00  0.00    +0.000 HD
ENDBRANCH   6  13
BRANCH   9  15
ATOM     15  O   UNL     1      20.106   0.303  51.824  0.00  0.00    +0.000 OA
ATOM     16  H   UNL     1      19.997   1.233  51.805  0.00  0.00    +0.000 HD
ENDBRANCH   9  15
BRANCH   1  17
ATOM     17  C   UNL     1      24.308   2.987  51.744  0.00  0.00    +0.000 C 
BRANCH  17  18
ATOM     18  C   UNL     1      23.692   3.930  52.808  0.00  0.00    +0.000 C 
BRANCH  18  22
ATOM     19  C   UNL     1      21.008   4.290  51.394  0.00  0.00    +0.000 C 
ATOM     20  C   UNL     1      21.992   5.404  51.621  0.00  0.00    +0.000 C 
ATOM     21  C   UNL     1      21.651   6.752  51.051  0.00  0.00    +0.000 C 
ATOM     22  C   UNL     1      23.168   5.234  52.255  0.00  0.00    +0.000 C 
ENDBRANCH  18  22
ENDBRANCH  17  18
BRANCH  17  23
ATOM     23  O   UNL     1      25.627   3.441  51.397  0.00  0.00    +0.000 OA
BRANCH  23  24
ATOM     24  C   UNL     1      25.845   3.430  50.048  0.00  0.00    +0.000 C 
ATOM     25  O   UNL     1      26.644   2.713  49.454  0.00  0.00    +0.000 OA
BRANCH  24  26
ATOM     26  C   UNL     1      24.848   4.251  49.332  0.00  0.00    +0.000 A 
ATOM     27  C   UNL     1      25.124   5.617  49.152  0.00  0.00    +0.000 A 
ATOM     28  C   UNL     1      24.273   6.409  48.386  0.00  0.00    +0.000 A 
ATOM     29  C   UNL     1      23.131   5.844  47.817  0.00  0.00    +0.000 A 
ATOM     30  C   UNL     1      22.832   4.497  48.033  0.00  0.00    +0.000 A 
ATOM     31  C   UNL     1      23.685   3.698  48.795  0.00  0.00    +0.000 A 
ENDBRANCH  24  26
ENDBRANCH  23  24
ENDBRANCH  17  23
ENDBRANCH   1  17
TORSDOF 8
ENDMDL
MODEL 5
REMARK VINA RESULT:    -8.943      2.409      6.369
REMARK INTER + INTRA:         -13.975
REMARK INTER:                 -12.719
REMARK INTRA:                  -1.255
REMARK UNBOUND:                -1.372
REMARK  Name = 
REMARK  10 active torsions:
REMARK  status: ('A' for Active; 'I' for Inactive)
REMARK    1  A    between atoms: C_1  and  C_2
REMARK    2  A    between atoms: C_2  and  C_3
REMARK    3  A    between atoms: C_4  and  C_5
REMARK    4  A    between atoms: C_5  and  C_6
REMARK    5  A    between atoms: C_6  and  O_7
REMARK    6  A    between atoms: C_6  and  C_16
REMARK    7  A    between atoms: O_7  and  C_8
REMARK    8  A    between atoms: C_8  and  C_10
REMARK    9  A    between atoms: C_21  and  O_22
REMARK   10  A    between atoms: C_25  and  O_26
REMARK                            x       y       z     vdW  Elec       q    Type
REMARK                         _______ _______ _______ _____ _____    ______ ____
ROOT
ATOM      1  C   UNL     1      24.467   1.591  51.806  0.00  0.00    +0.000 C 
ATOM      2  C   UNL     1      25.573   1.051  52.343  0.00  0.00    +0.000 C 
ATOM      3  C   UNL     1      25.483   0.012  53.379  0.00  0.00    +0.000 C 
ATOM      4  O   UNL     1      26.494  -0.358  53.970  0.00  0.00    +0.000 OA
ATOM      5  C   UNL     1      24.147  -0.396  53.832  0.00  0.00    +0.000 A 
ATOM      6  C   UNL     1      24.008  -1.124  55.024  0.00  0.00    +0.000 A 
ATOM      7  C   UNL     1      22.748  -1.497  55.472  0.00  0.00    +0.000 A 
ATOM      8  C   UNL     1      21.613  -1.109  54.758  0.00  0.00    +0.000 A 
ATOM      9  C   UNL     1      21.742  -0.338  53.605  0.00  0.00    +0.000 A 
ATOM     10  C   UNL     1      23.022   0.005  53.122  0.00  0.00    +0.000 A 
ATOM     11  C   UNL     1      23.181   0.859  51.921  0.00  0.00    +0.000 C 
ATOM     12  O   UNL     1      22.325   0.983  51.059  0.00  0.00    +0.000 OA
ENDROOT
BRANCH   6  13
ATOM     13  O   UNL     1      25.063  -1.463  55.829  0.00  0.00    +0.000 OA
ATOM     14  H   UNL     1      25.013  -2.228  56.369  0.00  0.00    +0.000 HD
ENDBRANCH   6  13
BRANCH   9  15
ATOM     15  O   UNL     1      20.620   0.117  52.980  0.00  0.00    +0.000 OA
ATOM     16  H   UNL     1      20.684   0.510  52.132  0.00  0.00    +0.000 HD
ENDBRANCH   9  15
BRANCH   1  17
ATOM     17  C   UNL     1      24.333   3.045  51.394  0.00  0.00    +0.000 C 
BRANCH  17  18
ATOM     18  C   UNL     1      23.833   3.988  52.518  0.00  0.00    +0.000 C 
BRANCH  18  22
ATOM     19  C   UNL     1      21.009   4.345  51.408  0.00  0.00    +0.000 C 
ATOM     20  C   UNL     1      22.013   5.460  51.523  0.00  0.00    +0.000 C 
ATOM     21  C   UNL     1      21.610   6.807  50.991  0.00  0.00    +0.000 C 
ATOM     22  C   UNL     1      23.251   5.291  52.024  0.00  0.00    +0.000 C 
ENDBRANCH  18  22
ENDBRANCH  17  18
BRANCH  17  23
ATOM     23  O   UNL     1      25.499   3.607  50.770  0.00  0.00    +0.000 OA
BRANCH  23  24
ATOM     24  C   UNL     1      25.244   4.071  49.510  0.00  0.00    +0.000 C 
ATOM     25  O   UNL     1      24.220   3.876  48.864  0.00  0.00    +0.000 OA
BRANCH  24  26
ATOM     26  C   UNL     1      26.278   5.030  49.067  0.00  0.00    +0.000 A 
ATOM     27  C   UNL     1      27.571   4.540  48.820  0.00  0.00    +0.000 A 
ATOM     28  C   UNL     1      28.549   5.379  48.293  0.00  0.00    +0.000 A 
ATOM     29  C   UNL     1      28.244   6.716  48.033  0.00  0.00    +0.000 A 
ATOM     30  C   UNL     1      26.972   7.214  48.320  0.00  0.00    +0.000 A 
ATOM     31  C   UNL     1      25.987   6.377  48.844  0.00  0.00    +0.000 A 
ENDBRANCH  24  26
ENDBRANCH  23  24
ENDBRANCH  17  23
ENDBRANCH   1  17
TORSDOF 8
ENDMDL
MODEL 6
REMARK VINA RESULT:    -8.793      2.227      7.356
REMARK INTER + INTRA:         -13.764
REMARK INTER:                 -12.283
REMARK INTRA:                  -1.480
REMARK UNBOUND:                -1.372
REMARK  Name = 
REMARK  10 active torsions:
REMARK  status: ('A' for Active; 'I' for Inactive)
REMARK    1  A    between atoms: C_1  and  C_2
REMARK    2  A    between atoms: C_2  and  C_3
REMARK    3  A    between atoms: C_4  and  C_5
REMARK    4  A    between atoms: C_5  and  C_6
REMARK    5  A    between atoms: C_6  and  O_7
REMARK    6  A    between atoms: C_6  and  C_16
REMARK    7  A    between atoms: O_7  and  C_8
REMARK    8  A    between atoms: C_8  and  C_10
REMARK    9  A    between atoms: C_21  and  O_22
REMARK   10  A    between atoms: C_25  and  O_26
REMARK                            x       y       z     vdW  Elec       q    Type
REMARK                         _______ _______ _______ _____ _____    ______ ____
ROOT
ATOM      1  C   UNL     1      24.734   2.789  50.467  0.00  0.00    +0.000 C 
ATOM      2  C   UNL     1      23.483   2.726  49.985  0.00  0.00    +0.000 C 
ATOM      3  C   UNL     1      22.954   3.781  49.109  0.00  0.00    +0.000 C 
ATOM      4  O   UNL     1      21.765   3.792  48.804  0.00  0.00    +0.000 OA
ATOM      5  C   UNL     1      23.826   4.923  48.801  0.00  0.00    +0.000 A 
ATOM      6  C   UNL     1      23.275   6.093  48.256  0.00  0.00    +0.000 A 
ATOM      7  C   UNL     1      24.087   7.185  47.982  0.00  0.00    +0.000 A 
ATOM      8  C   UNL     1      25.448   7.135  48.288  0.00  0.00    +0.000 A 
ATOM      9  C   UNL     1      25.989   5.997  48.882  0.00  0.00    +0.000 A 
ATOM     10  C   UNL     1      25.177   4.869  49.122  0.00  0.00    +0.000 A 
ATOM     11  C   UNL     1      25.722   3.664  49.790  0.00  0.00    +0.000 C 
ATOM     12  O   UNL     1      26.910   3.378  49.809  0.00  0.00    +0.000 OA
ENDROOT
BRANCH   6  13
ATOM     13  O   UNL     1      21.937   6.255  48.012  0.00  0.00    +0.000 OA
ATOM     14  H   UNL     1      21.306   5.872  48.589  0.00  0.00    +0.000 HD
ENDBRANCH   6  13
BRANCH   9  15
ATOM     15  O   UNL     1      27.295   6.006  49.268  0.00  0.00    +0.000 OA
ATOM     16  H   UNL     1      27.565   6.527  49.998  0.00  0.00    +0.000 HD
ENDBRANCH   9  15
BRANCH   1  17
ATOM     17  C   UNL     1      25.147   2.319  51.851  0.00  0.00    +0.000 C 
BRANCH  17  18
ATOM     18  C   UNL     1      23.980   2.193  52.862  0.00  0.00    +0.000 C 
BRANCH  18  22
ATOM     19  C   UNL     1      21.197   0.980  52.521  0.00  0.00    +0.000 C 
ATOM     20  C   UNL     1      22.379   0.227  53.068  0.00  0.00    +0.000 C 
ATOM     21  C   UNL     1      22.143  -1.182  53.534  0.00  0.00    +0.000 C 
ATOM     22  C   UNL     1      23.603   0.771  53.203  0.00  0.00    +0.000 C 
ENDBRANCH  18  22
ENDBRANCH  17  18
BRANCH  17  23
ATOM     23  O   UNL     1      25.941   1.122  51.871  0.00  0.00    +0.000 OA
BRANCH  23  24
ATOM     24  C   UNL     1      27.119   1.287  52.542  0.00  0.00    +0.000 C 
ATOM     25  O   UNL     1      27.550   2.345  52.991  0.00  0.00    +0.000 OA
BRANCH  24  26
ATOM     26  C   UNL     1      27.747  -0.011  52.861  0.00  0.00    +0.000 A 
ATOM     27  C   UNL     1      27.038  -1.183  52.550  0.00  0.00    +0.000 A 
ATOM     28  C   UNL     1      27.633  -2.430  52.725  0.00  0.00    +0.000 A 
ATOM     29  C   UNL     1      28.929  -2.510  53.234  0.00  0.00    +0.000 A 
ATOM     30  C   UNL     1      29.618  -1.348  53.586  0.00  0.00    +0.000 A 
ATOM     31  C   UNL     1      29.029  -0.096  53.408  0.00  0.00    +0.000 A 
ENDBRANCH  24  26
ENDBRANCH  23  24
ENDBRANCH  17  23
ENDBRANCH   1  17
TORSDOF 8
ENDMDL
MODEL 7
REMARK VINA RESULT:    -8.603      2.529      6.678
REMARK INTER + INTRA:         -13.495
REMARK INTER:                 -11.391
REMARK INTRA:                  -2.104
REMARK UNBOUND:                -1.372
REMARK  Name = 
REMARK  10 active torsions:
REMARK  status: ('A' for Active; 'I' for Inactive)
REMARK    1  A    between atoms: C_1  and  C_2
REMARK    2  A    between atoms: C_2  and  C_3
REMARK    3  A    between atoms: C_4  and  C_5
REMARK    4  A    between atoms: C_5  and  C_6
REMARK    5  A    between atoms: C_6  and  O_7
REMARK    6  A    between atoms: C_6  and  C_16
REMARK    7  A    between atoms: O_7  and  C_8
REMARK    8  A    between atoms: C_8  and  C_10
REMARK    9  A    between atoms: C_21  and  O_22
REMARK   10  A    between atoms: C_25  and  O_26
REMARK                            x       y       z     vdW  Elec       q    Type
REMARK                         _______ _______ _______ _____ _____    ______ ____
ROOT
ATOM      1  C   UNL     1      23.204   1.433  52.091  0.00  0.00    +0.000 C 
ATOM      2  C   UNL     1      22.891   1.173  50.812  0.00  0.00    +0.000 C 
ATOM      3  C   UNL     1      22.715   2.260  49.838  0.00  0.00    +0.000 C 
ATOM      4  O   UNL     1      22.277   2.019  48.717  0.00  0.00    +0.000 OA
ATOM      5  C   UNL     1      22.861   3.642  50.314  0.00  0.00    +0.000 A 
ATOM      6  C   UNL     1      22.388   4.704  49.527  0.00  0.00    +0.000 A 
ATOM      7  C   UNL     1      22.503   6.012  49.978  0.00  0.00    +0.000 A 
ATOM      8  C   UNL     1      23.050   6.269  51.236  0.00  0.00    +0.000 A 
ATOM      9  C   UNL     1      23.468   5.216  52.045  0.00  0.00    +0.000 A 
ATOM     10  C   UNL     1      23.395   3.888  51.574  0.00  0.00    +0.000 A 
ATOM     11  C   UNL     1      23.796   2.750  52.433  0.00  0.00    +0.000 C 
ATOM     12  O   UNL     1      24.561   2.851  53.380  0.00  0.00    +0.000 OA
ENDROOT
BRANCH   6  13
ATOM     13  O   UNL     1      21.757   4.529  48.325  0.00  0.00    +0.000 OA
ATOM     14  H   UNL     1      21.799   5.200  47.672  0.00  0.00    +0.000 HD
ENDBRANCH   6  13
BRANCH   9  15
ATOM     15  O   UNL     1      23.904   5.479  53.309  0.00  0.00    +0.000 OA
ATOM     16  H   UNL     1      24.265   4.792  53.833  0.00  0.00    +0.000 HD
ENDBRANCH   9  15
BRANCH   1  17
ATOM     17  C   UNL     1      22.688   0.643  53.280  0.00  0.00    +0.000 C 
BRANCH  17  18
ATOM     18  C   UNL     1      21.145   0.635  53.427  0.00  0.00    +0.000 C 
BRANCH  18  22
ATOM     19  C   UNL     1      19.207   0.945  51.086  0.00  0.00    +0.000 C 
ATOM     20  C   UNL     1      19.628   2.077  51.982  0.00  0.00    +0.000 C 
ATOM     21  C   UNL     1      19.109   3.448  51.649  0.00  0.00    +0.000 C 
ATOM     22  C   UNL     1      20.475   1.926  53.017  0.00  0.00    +0.000 C 
ENDBRANCH  18  22
ENDBRANCH  17  18
BRANCH  17  23
ATOM     23  O   UNL     1      23.193  -0.699  53.380  0.00  0.00    +0.000 OA
BRANCH  23  24
ATOM     24  C   UNL     1      23.981  -0.880  54.481  0.00  0.00    +0.000 C 
ATOM     25  O   UNL     1      23.621  -1.356  55.554  0.00  0.00    +0.000 OA
BRANCH  24  26
ATOM     26  C   UNL     1      25.403  -0.623  54.178  0.00  0.00    +0.000 A 
ATOM     27  C   UNL     1      25.897  -1.031  52.928  0.00  0.00    +0.000 A 
ATOM     28  C   UNL     1      27.197  -0.711  52.548  0.00  0.00    +0.000 A 
ATOM     29  C   UNL     1      28.017  -0.001  53.427  0.00  0.00    +0.000 A 
ATOM     30  C   UNL     1      27.542   0.366  54.687  0.00  0.00    +0.000 A 
ATOM     31  C   UNL     1      26.238   0.052  55.071  0.00  0.00    +0.000 A 
ENDBRANCH  24  26
ENDBRANCH  23  24
ENDBRANCH  17  23
ENDBRANCH   1  17
TORSDOF 8
ENDMDL
MODEL 8
REMARK VINA RESULT:    -8.382      2.577      5.496
REMARK INTER + INTRA:         -13.184
REMARK INTER:                 -11.234
REMARK INTRA:                  -1.951
REMARK UNBOUND:                -1.372
REMARK  Name = 
REMARK  10 active torsions:
REMARK  status: ('A' for Active; 'I' for Inactive)
REMARK    1  A    between atoms: C_1  and  C_2
REMARK    2  A    between atoms: C_2  and  C_3
REMARK    3  A    between atoms: C_4  and  C_5
REMARK    4  A    between atoms: C_5  and  C_6
REMARK    5  A    between atoms: C_6  and  O_7
REMARK    6  A    between atoms: C_6  and  C_16
REMARK    7  A    between atoms: O_7  and  C_8
REMARK    8  A    between atoms: C_8  and  C_10
REMARK    9  A    between atoms: C_21  and  O_22
REMARK   10  A    between atoms: C_25  and  O_26
REMARK                            x       y       z     vdW  Elec       q    Type
REMARK                         _______ _______ _______ _____ _____    ______ ____
ROOT
ATOM      1  C   UNL     1      24.321   1.600  51.524  0.00  0.00    +0.000 C 
ATOM      2  C   UNL     1      25.475   1.097  51.990  0.00  0.00    +0.000 C 
ATOM      3  C   UNL     1      25.486   0.094  53.064  0.00  0.00    +0.000 C 
ATOM      4  O   UNL     1      26.546  -0.239  53.586  0.00  0.00    +0.000 OA
ATOM      5  C   UNL     1      24.197  -0.321  53.634  0.00  0.00    +0.000 A 
ATOM      6  C   UNL     1      24.165  -1.009  54.856  0.00  0.00    +0.000 A 
ATOM      7  C   UNL     1      22.951  -1.386  55.414  0.00  0.00    +0.000 A 
ATOM      8  C   UNL     1      21.757  -1.043  54.779  0.00  0.00    +0.000 A 
ATOM      9  C   UNL     1      21.781  -0.310  53.594  0.00  0.00    +0.000 A 
ATOM     10  C   UNL     1      23.013   0.037  53.001  0.00  0.00    +0.000 A 
ATOM     11  C   UNL     1      23.062   0.852  51.764  0.00  0.00    +0.000 C 
ATOM     12  O   UNL     1      22.139   0.932  50.968  0.00  0.00    +0.000 OA
ENDROOT
BRANCH   6  13
ATOM     13  O   UNL     1      25.285  -1.303  55.587  0.00  0.00    +0.000 OA
ATOM     14  H   UNL     1      25.982  -0.679  55.648  0.00  0.00    +0.000 HD
ENDBRANCH   6  13
BRANCH   9  15
ATOM     15  O   UNL     1      20.606   0.105  53.044  0.00  0.00    +0.000 OA
ATOM     16  H   UNL     1      19.795  -0.079  53.476  0.00  0.00    +0.000 HD
ENDBRANCH   9  15
BRANCH   1  17
ATOM     17  C   UNL     1      24.127   3.038  51.076  0.00  0.00    +0.000 C 
BRANCH  17  18
ATOM     18  C   UNL     1      24.235   3.254  49.546  0.00  0.00    +0.000 C 
BRANCH  18  22
ATOM     19  C   UNL     1      23.302   5.540  47.746  0.00  0.00    +0.000 C 
ATOM     20  C   UNL     1      22.478   4.317  48.044  0.00  0.00    +0.000 C 
ATOM     21  C   UNL     1      21.090   4.265  47.471  0.00  0.00    +0.000 C 
ATOM     22  C   UNL     1      22.905   3.311  48.831  0.00  0.00    +0.000 C 
ENDBRANCH  18  22
ENDBRANCH  17  18
BRANCH  17  23
ATOM     23  O   UNL     1      22.939   3.672  51.576  0.00  0.00    +0.000 OA
BRANCH  23  24
ATOM     24  C   UNL     1      23.215   4.779  52.328  0.00  0.00    +0.000 C 
ATOM     25  O   UNL     1      23.748   4.785  53.434  0.00  0.00    +0.000 OA
BRANCH  24  26
ATOM     26  C   UNL     1      22.983   6.023  51.565  0.00  0.00    +0.000 A 
ATOM     27  C   UNL     1      24.090   6.838  51.278  0.00  0.00    +0.000 A 
ATOM     28  C   UNL     1      23.942   7.960  50.466  0.00  0.00    +0.000 A 
ATOM     29  C   UNL     1      22.684   8.284  49.959  0.00  0.00    +0.000 A 
ATOM     30  C   UNL     1      21.574   7.499  50.281  0.00  0.00    +0.000 A 
ATOM     31  C   UNL     1      21.717   6.371  51.090  0.00  0.00    +0.000 A 
ENDBRANCH  24  26
ENDBRANCH  23  24
ENDBRANCH  17  23
ENDBRANCH   1  17
TORSDOF 8
ENDMDL
MODEL 9
REMARK VINA RESULT:    -8.365      2.606      5.152
REMARK INTER + INTRA:         -13.160
REMARK INTER:                 -11.847
REMARK INTRA:                  -1.313
REMARK UNBOUND:                -1.372
REMARK  Name = 
REMARK  10 active torsions:
REMARK  status: ('A' for Active; 'I' for Inactive)
REMARK    1  A    between atoms: C_1  and  C_2
REMARK    2  A    between atoms: C_2  and  C_3
REMARK    3  A    between atoms: C_4  and  C_5
REMARK    4  A    between atoms: C_5  and  C_6
REMARK    5  A    between atoms: C_6  and  O_7
REMARK    6  A    between atoms: C_6  and  C_16
REMARK    7  A    between atoms: O_7  and  C_8
REMARK    8  A    between atoms: C_8  and  C_10
REMARK    9  A    between atoms: C_21  and  O_22
REMARK   10  A    between atoms: C_25  and  O_26
REMARK                            x       y       z     vdW  Elec       q    Type
REMARK                         _______ _______ _______ _____ _____    ______ ____
ROOT
ATOM      1  C   UNL     1      24.358   1.573  51.765  0.00  0.00    +0.000 C 
ATOM      2  C   UNL     1      25.478   1.095  52.329  0.00  0.00    +0.000 C 
ATOM      3  C   UNL     1      25.419   0.066  53.377  0.00  0.00    +0.000 C 
ATOM      4  O   UNL     1      26.435  -0.247  53.992  0.00  0.00    +0.000 OA
ATOM      5  C   UNL     1      24.096  -0.402  53.811  0.00  0.00    +0.000 A 
ATOM      6  C   UNL     1      23.970  -1.121  55.010  0.00  0.00    +0.000 A 
ATOM      7  C   UNL     1      22.721  -1.549  55.439  0.00  0.00    +0.000 A 
ATOM      8  C   UNL     1      21.582  -1.226  54.699  0.00  0.00    +0.000 A 
ATOM      9  C   UNL     1      21.696  -0.464  53.538  0.00  0.00    +0.000 A 
ATOM     10  C   UNL     1      22.967  -0.065  53.074  0.00  0.00    +0.000 A 
ATOM     11  C   UNL     1      23.107   0.781  51.866  0.00  0.00    +0.000 C 
ATOM     12  O   UNL     1      22.263   0.852  50.986  0.00  0.00    +0.000 OA
ENDROOT
BRANCH   6  13
ATOM     13  O   UNL     1      25.024  -1.397  55.839  0.00  0.00    +0.000 OA
ATOM     14  H   UNL     1      25.894  -1.437  55.493  0.00  0.00    +0.000 HD
ENDBRANCH   6  13
BRANCH   9  15
ATOM     15  O   UNL     1      20.566  -0.072  52.886  0.00  0.00    +0.000 OA
ATOM     16  H   UNL     1      19.990  -0.714  52.519  0.00  0.00    +0.000 HD
ENDBRANCH   9  15
BRANCH   1  17
ATOM     17  C   UNL     1      24.161   3.014  51.331  0.00  0.00    +0.000 C 
BRANCH  17  18
ATOM     18  C   UNL     1      24.402   3.270  49.822  0.00  0.00    +0.000 C 
BRANCH  18  22
ATOM     19  C   UNL     1      25.365   6.046  48.985  0.00  0.00    +0.000 C 
ATOM     20  C   UNL     1      26.262   4.844  49.091  0.00  0.00    +0.000 C 
ATOM     21  C   UNL     1      27.700   5.020  48.691  0.00  0.00    +0.000 C 
ATOM     22  C   UNL     1      25.827   3.628  49.471  0.00  0.00    +0.000 C 
ENDBRANCH  18  22
ENDBRANCH  17  18
BRANCH  17  23
ATOM     23  O   UNL     1      22.913   3.601  51.732  0.00  0.00    +0.000 OA
BRANCH  23  24
ATOM     24  C   UNL     1      22.996   4.958  51.876  0.00  0.00    +0.000 C 
ATOM     25  O   UNL     1      23.875   5.566  52.480  0.00  0.00    +0.000 OA
BRANCH  24  26
ATOM     26  C   UNL     1      21.999   5.654  51.037  0.00  0.00    +0.000 A 
ATOM     27  C   UNL     1      20.892   4.920  50.579  0.00  0.00    +0.000 A 
ATOM     28  C   UNL     1      19.869   5.556  49.882  0.00  0.00    +0.000 A 
ATOM     29  C   UNL     1      19.959   6.923  49.619  0.00  0.00    +0.000 A 
ATOM     30  C   UNL     1      21.080   7.645  50.034  0.00  0.00    +0.000 A 
ATOM     31  C   UNL     1      22.107   7.013  50.737  0.00  0.00    +0.000 A 
ENDBRANCH  24  26
ENDBRANCH  23  24
ENDBRANCH  17  23
ENDBRANCH   1  17
TORSDOF 8
ENDMDL
