MODEL 1
REMARK VINA RESULT:    -8.821      0.000      0.000
REMARK INTER + INTRA:         -10.310
REMARK INTER:                 -10.368
REMARK INTRA:                   0.057
REMARK UNBOUND:                 0.057
REMARK  Name = 
REMARK  4 active torsions:
REMARK  status: ('A' for Active; 'I' for Inactive)
REMARK    1  A    between atoms: C_1  and  C_2
REMARK    2  A    between atoms: C_2  and  N_3
REMARK    3  A    between atoms: N_3  and  C_4
REMARK    4  A    between atoms: C_14  and  C_16
REMARK                            x       y       z     vdW  Elec       q    Type
REMARK                         _______ _______ _______ _____ _____    ______ ____
ROOT
ATOM      1  C   UNL     1      27.463   1.931  52.876  0.00  0.00    +0.000 A 
ATOM      2  C   UNL     1      28.770   1.587  53.229  0.00  0.00    +0.000 A 
ATOM      3  C   UNL     1      28.994   0.628  54.208  0.00  0.00    +0.000 A 
ATOM      4  C   UNL     1      27.899   0.067  54.841  0.00  0.00    +0.000 A 
ATOM      5  N   UNL     1      26.619   0.396  54.569  0.00  0.00    +0.000 NA
ATOM      6  C   UNL     1      26.397   1.334  53.616  0.00  0.00    +0.000 A 
ATOM      7  N   UNL     1      25.081   1.616  53.242  0.00  0.00    +0.000 N 
ATOM      8  C   UNL     1      24.050   0.633  53.582  0.00  0.00    +0.000 C 
ATOM      9  C   UNL     1      22.904   0.779  52.555  0.00  0.00    +0.000 C 
ATOM     10  N   UNL     1      22.448   2.177  52.362  0.00  0.00    +0.000 N 
ATOM     11  C   UNL     1      21.189   2.543  51.869  0.00  0.00    +0.000 C 
ATOM     12  O   UNL     1      20.884   3.721  51.667  0.00  0.00    +0.000 OA
ATOM     13  C   UNL     1      23.504   3.203  52.326  0.00  0.00    +0.000 C 
ATOM     14  C   UNL     1      24.584   2.991  53.407  0.00  0.00    +0.000 C 
ENDROOT
BRANCH  11  15
ATOM     15  C   UNL     1      20.129   1.510  51.661  0.00  0.00    +0.000 A 
ATOM     16  C   UNL     1      19.341   1.615  50.524  0.00  0.00    +0.000 A 
ATOM     17  C   UNL     1      18.226   0.794  50.426  0.00  0.00    +0.000 A 
ATOM     18  C   UNL     1      17.945  -0.113  51.453  0.00  0.00    +0.000 A 
ATOM     19  C   UNL     1      16.759  -0.866  51.461  0.00  0.00    +0.000 A 
ATOM     20  C   UNL     1      16.510  -1.772  52.489  0.00  0.00    +0.000 A 
ATOM     21  C   UNL     1      17.466  -1.967  53.479  0.00  0.00    +0.000 A 
ATOM     22  C   UNL     1      18.639  -1.204  53.476  0.00  0.00    +0.000 A 
ATOM     23  C   UNL     1      18.877  -0.240  52.506  0.00  0.00    +0.000 A 
ATOM     24  N   UNL     1      19.952   0.559  52.616  0.00  0.00    +0.000 NA
ENDBRANCH  11  15
BRANCH   1  25
ATOM     25  N   UNL     1      27.167   2.885  51.876  0.00  0.00    +0.000 N 
ATOM     26  H   UNL     1      27.243   3.845  52.085  0.00  0.00    +0.000 HD
BRANCH  25  28
ATOM     27  C   UNL     1      26.374   3.716  49.754  0.00  0.00    +0.000 C 
ATOM     28  C   UNL     1      26.753   2.477  50.547  0.00  0.00    +0.000 C 
ENDBRANCH  25  28
ENDBRANCH   1  25
TORSDOF 3
ENDMDL
MODEL 2
REMARK VINA RESULT:    -8.496      2.864      8.321
REMARK INTER + INTRA:          -9.929
REMARK INTER:                  -9.516
REMARK INTRA:                  -0.414
REMARK UNBOUND:                 0.057
REMARK  Name = 
REMARK  4 active torsions:
REMARK  status: ('A' for Active; 'I' for Inactive)
REMARK    1  A    between atoms: C_1  and  C_2
REMARK    2  A    between atoms: C_2  and  N_3
REMARK    3  A    between atoms: N_3  and  C_4
REMARK    4  A    between atoms: C_14  and  C_16
REMARK                            x       y       z     vdW  Elec       q    Type
REMARK                         _______ _______ _______ _____ _____    ______ ____
ROOT
ATOM      1  C   UNL     1      21.691   0.330  53.582  0.00  0.00    +0.000 A 
ATOM      2  C   UNL     1      21.463  -0.570  54.625  0.00  0.00    +0.000 A 
ATOM      3  C   UNL     1      22.526  -1.274  55.178  0.00  0.00    +0.000 A 
ATOM      4  C   UNL     1      23.787  -1.087  54.642  0.00  0.00    +0.000 A 
ATOM      5  N   UNL     1      24.053  -0.262  53.607  0.00  0.00    +0.000 NA
ATOM      6  C   UNL     1      23.019   0.422  53.063  0.00  0.00    +0.000 A 
ATOM      7  N   UNL     1      23.283   1.359  52.061  0.00  0.00    +0.000 N 
ATOM      8  C   UNL     1      24.658   1.847  51.930  0.00  0.00    +0.000 C 
ATOM      9  C   UNL     1      24.598   3.260  51.305  0.00  0.00    +0.000 C 
ATOM     10  N   UNL     1      23.747   3.342  50.093  0.00  0.00    +0.000 N 
ATOM     11  C   UNL     1      23.864   4.328  49.104  0.00  0.00    +0.000 C 
ATOM     12  O   UNL     1      23.087   4.388  48.147  0.00  0.00    +0.000 OA
ATOM     13  C   UNL     1      22.486   2.583  50.135  0.00  0.00    +0.000 C 
ATOM     14  C   UNL     1      22.653   1.176  50.745  0.00  0.00    +0.000 C 
ENDROOT
BRANCH  11  15
ATOM     15  C   UNL     1      25.006   5.291  49.128  0.00  0.00    +0.000 A 
ATOM     16  C   UNL     1      24.719   6.626  49.369  0.00  0.00    +0.000 A 
ATOM     17  C   UNL     1      25.734   7.555  49.186  0.00  0.00    +0.000 A 
ATOM     18  C   UNL     1      27.002   7.121  48.786  0.00  0.00    +0.000 A 
ATOM     19  C   UNL     1      28.020   8.032  48.461  0.00  0.00    +0.000 A 
ATOM     20  C   UNL     1      29.278   7.573  48.079  0.00  0.00    +0.000 A 
ATOM     21  C   UNL     1      29.539   6.208  48.076  0.00  0.00    +0.000 A 
ATOM     22  C   UNL     1      28.518   5.302  48.386  0.00  0.00    +0.000 A 
ATOM     23  C   UNL     1      27.234   5.731  48.695  0.00  0.00    +0.000 A 
ATOM     24  N   UNL     1      26.254   4.825  48.858  0.00  0.00    +0.000 NA
ENDBRANCH  11  15
BRANCH   1  25
ATOM     25  N   UNL     1      20.657   1.089  52.989  0.00  0.00    +0.000 N 
ATOM     26  H   UNL     1      20.818   2.036  52.767  0.00  0.00    +0.000 HD
BRANCH  25  28
ATOM     27  C   UNL     1      19.180   0.442  51.193  0.00  0.00    +0.000 C 
ATOM     28  C   UNL     1      19.362   0.502  52.700  0.00  0.00    +0.000 C 
ENDBRANCH  25  28
ENDBRANCH   1  25
TORSDOF 3
ENDMDL
MODEL 3
REMARK VINA RESULT:    -8.256      3.166      7.897
REMARK INTER + INTRA:          -9.646
REMARK INTER:                  -9.594
REMARK INTRA:                  -0.053
REMARK UNBOUND:                 0.057
REMARK  Name = 
REMARK  4 active torsions:
REMARK  status: ('A' for Active; 'I' for Inactive)
REMARK    1  A    between atoms: C_1  and  C_2
REMARK    2  A    between atoms: C_2  and  N_3
REMARK    3  A    between atoms: N_3  and  C_4
REMARK    4  A    between atoms: C_14  and  C_16
REMARK                            x       y       z     vdW  Elec       q    Type
REMARK                         _______ _______ _______ _____ _____    ______ ____
ROOT
ATOM      1  C   UNL     1      20.473   4.534  49.783  0.00  0.00    +0.000 A 
ATOM      2  C   UNL     1      19.986   5.667  49.126  0.00  0.00    +0.000 A 
ATOM      3  C   UNL     1      20.410   6.930  49.517  0.00  0.00    +0.000 A 
ATOM      4  C   UNL     1      21.281   7.029  50.587  0.00  0.00    +0.000 A 
ATOM      5  N   UNL     1      21.747   5.970  51.283  0.00  0.00    +0.000 NA
ATOM      6  C   UNL     1      21.332   4.736  50.907  0.00  0.00    +0.000 A 
ATOM      7  N   UNL     1      21.880   3.619  51.541  0.00  0.00    +0.000 N 
ATOM      8  C   UNL     1      23.135   3.799  52.274  0.00  0.00    +0.000 C 
ATOM      9  C   UNL     1      23.868   2.437  52.293  0.00  0.00    +0.000 C 
ATOM     10  N   UNL     1      23.011   1.303  52.715  0.00  0.00    +0.000 N 
ATOM     11  C   UNL     1      23.490   0.096  53.242  0.00  0.00    +0.000 C 
ATOM     12  O   UNL     1      22.737  -0.841  53.516  0.00  0.00    +0.000 OA
ATOM     13  C   UNL     1      21.632   1.306  52.197  0.00  0.00    +0.000 C 
ATOM     14  C   UNL     1      20.975   2.700  52.248  0.00  0.00    +0.000 C 
ENDROOT
BRANCH  11  15
ATOM     15  C   UNL     1      24.937  -0.059  53.581  0.00  0.00    +0.000 A 
ATOM     16  C   UNL     1      25.556   0.981  54.257  0.00  0.00    +0.000 A 
ATOM     17  C   UNL     1      26.937   0.941  54.391  0.00  0.00    +0.000 A 
ATOM     18  C   UNL     1      27.650  -0.141  53.862  0.00  0.00    +0.000 A 
ATOM     19  C   UNL     1      29.054  -0.159  53.856  0.00  0.00    +0.000 A 
ATOM     20  C   UNL     1      29.740  -1.254  53.336  0.00  0.00    +0.000 A 
ATOM     21  C   UNL     1      29.027  -2.354  52.874  0.00  0.00    +0.000 A 
ATOM     22  C   UNL     1      27.628  -2.326  52.868  0.00  0.00    +0.000 A 
ATOM     23  C   UNL     1      26.921  -1.215  53.309  0.00  0.00    +0.000 A 
ATOM     24  N   UNL     1      25.585  -1.180  53.164  0.00  0.00    +0.000 NA
ENDBRANCH  11  15
BRANCH   1  25
ATOM     25  N   UNL     1      20.096   3.220  49.423  0.00  0.00    +0.000 N 
ATOM     26  H   UNL     1      19.533   2.693  50.036  0.00  0.00    +0.000 HD
BRANCH  25  28
ATOM     27  C   UNL     1      21.605   1.605  48.454  0.00  0.00    +0.000 C 
ATOM     28  C   UNL     1      20.524   2.633  48.168  0.00  0.00    +0.000 C 
ENDBRANCH  25  28
ENDBRANCH   1  25
TORSDOF 3
ENDMDL
MODEL 4
REMARK VINA RESULT:    -8.111      2.157      8.731
REMARK INTER + INTRA:          -9.476
REMARK INTER:                  -9.027
REMARK INTRA:                  -0.449
REMARK UNBOUND:                 0.057
REMARK  Name = 
REMARK  4 active torsions:
REMARK  status: ('A' for Active; 'I' for Inactive)
REMARK    1  A    between atoms: C_1  and  C_2
REMARK    2  A    between atoms: C_2  and  N_3
REMARK    3  A    between atoms: N_3  and  C_4
REMARK    4  A    between atoms: C_14  and  C_16
REMARK                            x       y       z     vdW  Elec       q    Type
REMARK                         _______ _______ _______ _____ _____    ______ ____
ROOT
ATOM      1  C   UNL     1      18.464   1.322  50.558  0.00  0.00    +0.000 A 
ATOM      2  C   UNL     1      17.477   1.882  49.744  0.00  0.00    +0.000 A 
ATOM      3  C   UNL     1      17.647   3.160  49.227  0.00  0.00    +0.000 A 
ATOM      4  C   UNL     1      18.787   3.862  49.574  0.00  0.00    +0.000 A 
ATOM      5  N   UNL     1      19.750   3.384  50.391  0.00  0.00    +0.000 NA
ATOM      6  C   UNL     1      19.585   2.139  50.900  0.00  0.00    +0.000 A 
ATOM      7  N   UNL     1      20.614   1.581  51.662  0.00  0.00    +0.000 N 
ATOM      8  C   UNL     1      21.948   2.173  51.543  0.00  0.00    +0.000 C 
ATOM      9  C   UNL     1      22.982   1.073  51.880  0.00  0.00    +0.000 C 
ATOM     10  N   UNL     1      22.691   0.344  53.138  0.00  0.00    +0.000 N 
ATOM     11  C   UNL     1      23.644  -0.350  53.894  0.00  0.00    +0.000 C 
ATOM     12  O   UNL     1      23.336  -0.995  54.900  0.00  0.00    +0.000 OA
ATOM     13  C   UNL     1      21.276   0.020  53.386  0.00  0.00    +0.000 C 
ATOM     14  C   UNL     1      20.325   1.189  53.050  0.00  0.00    +0.000 C 
ENDROOT
BRANCH  11  15
ATOM     15  C   UNL     1      25.097  -0.251  53.556  0.00  0.00    +0.000 A 
ATOM     16  C   UNL     1      25.716  -1.377  53.037  0.00  0.00    +0.000 A 
ATOM     17  C   UNL     1      27.099  -1.364  52.917  0.00  0.00    +0.000 A 
ATOM     18  C   UNL     1      27.814  -0.224  53.302  0.00  0.00    +0.000 A 
ATOM     19  C   UNL     1      29.218  -0.213  53.325  0.00  0.00    +0.000 A 
ATOM     20  C   UNL     1      29.904   0.939  53.699  0.00  0.00    +0.000 A 
ATOM     21  C   UNL     1      29.194   2.096  53.996  0.00  0.00    +0.000 A 
ATOM     22  C   UNL     1      27.795   2.076  53.988  0.00  0.00    +0.000 A 
ATOM     23  C   UNL     1      27.085   0.920  53.693  0.00  0.00    +0.000 A 
ATOM     24  N   UNL     1      25.747   0.912  53.824  0.00  0.00    +0.000 NA
ENDBRANCH  11  15
BRANCH   1  25
ATOM     25  N   UNL     1      18.361   0.021  51.100  0.00  0.00    +0.000 N 
ATOM     26  H   UNL     1      19.167  -0.542  51.165  0.00  0.00    +0.000 HD
BRANCH  25  28
ATOM     27  C   UNL     1      17.317  -1.262  52.858  0.00  0.00    +0.000 C 
ATOM     28  C   UNL     1      17.089  -0.503  51.562  0.00  0.00    +0.000 C 
ENDBRANCH  25  28
ENDBRANCH   1  25
TORSDOF 3
ENDMDL
MODEL 5
REMARK VINA RESULT:    -8.105      2.492      8.157
REMARK INTER + INTRA:          -9.469
REMARK INTER:                  -9.224
REMARK INTRA:                  -0.246
REMARK UNBOUND:                 0.057
REMARK  Name = 
REMARK  4 active torsions:
REMARK  status: ('A' for Active; 'I' for Inactive)
REMARK    1  A    between atoms: C_1  and  C_2
REMARK    2  A    between atoms: C_2  and  N_3
REMARK    3  A    between atoms: N_3  and  C_4
REMARK    4  A    between atoms: C_14  and  C_16
REMARK                            x       y       z     vdW  Elec       q    Type
REMARK                         _______ _______ _______ _____ _____    ______ ____
ROOT
ATOM      1  C   UNL     1      19.471   3.563  51.182  0.00  0.00    +0.000 A 
ATOM      2  C   UNL     1      18.079   3.567  51.290  0.00  0.00    +0.000 A 
ATOM      3  C   UNL     1      17.391   2.368  51.431  0.00  0.00    +0.000 A 
ATOM      4  C   UNL     1      18.115   1.190  51.419  0.00  0.00    +0.000 A 
ATOM      5  N   UNL     1      19.456   1.129  51.274  0.00  0.00    +0.000 NA
ATOM      6  C   UNL     1      20.130   2.295  51.132  0.00  0.00    +0.000 A 
ATOM      7  N   UNL     1      21.525   2.267  51.086  0.00  0.00    +0.000 N 
ATOM      8  C   UNL     1      22.199   1.067  51.588  0.00  0.00    +0.000 C 
ATOM      9  C   UNL     1      23.609   1.485  52.066  0.00  0.00    +0.000 C 
ATOM     10  N   UNL     1      24.357   2.300  51.079  0.00  0.00    +0.000 N 
ATOM     11  C   UNL     1      25.752   2.427  51.045  0.00  0.00    +0.000 C 
ATOM     12  O   UNL     1      26.321   3.171  50.242  0.00  0.00    +0.000 OA
ATOM     13  C   UNL     1      23.576   3.317  50.354  0.00  0.00    +0.000 C 
ATOM     14  C   UNL     1      22.199   2.797  49.891  0.00  0.00    +0.000 C 
ENDROOT
BRANCH  11  15
ATOM     15  C   UNL     1      26.610   1.581  51.929  0.00  0.00    +0.000 A 
ATOM     16  C   UNL     1      27.527   2.225  52.746  0.00  0.00    +0.000 A 
ATOM     17  C   UNL     1      28.467   1.448  53.410  0.00  0.00    +0.000 A 
ATOM     18  C   UNL     1      28.450   0.059  53.250  0.00  0.00    +0.000 A 
ATOM     19  C   UNL     1      29.459  -0.753  53.793  0.00  0.00    +0.000 A 
ATOM     20  C   UNL     1      29.411  -2.135  53.631  0.00  0.00    +0.000 A 
ATOM     21  C   UNL     1      28.330  -2.713  52.977  0.00  0.00    +0.000 A 
ATOM     22  C   UNL     1      27.334  -1.900  52.424  0.00  0.00    +0.000 A 
ATOM     23  C   UNL     1      27.398  -0.516  52.505  0.00  0.00    +0.000 A 
ATOM     24  N   UNL     1      26.491   0.229  51.848  0.00  0.00    +0.000 NA
ENDBRANCH  11  15
BRANCH   1  25
ATOM     25  N   UNL     1      20.232   4.747  51.054  0.00  0.00    +0.000 N 
ATOM     26  H   UNL     1      20.940   4.940  51.711  0.00  0.00    +0.000 HD
BRANCH  25  28
ATOM     27  C   UNL     1      21.078   6.743  49.993  0.00  0.00    +0.000 C 
ATOM     28  C   UNL     1      19.988   5.685  49.975  0.00  0.00    +0.000 C 
ENDBRANCH  25  28
ENDBRANCH   1  25
TORSDOF 3
ENDMDL
MODEL 6
REMARK VINA RESULT:    -8.084      1.925      8.398
REMARK INTER + INTRA:          -9.445
REMARK INTER:                  -8.977
REMARK INTRA:                  -0.468
REMARK UNBOUND:                 0.057
REMARK  Name = 
REMARK  4 active torsions:
REMARK  status: ('A' for Active; 'I' for Inactive)
REMARK    1  A    between atoms: C_1  and  C_2
REMARK    2  A    between atoms: C_2  and  N_3
REMARK    3  A    between atoms: N_3  and  C_4
REMARK    4  A    between atoms: C_14  and  C_16
REMARK                            x       y       z     vdW  Elec       q    Type
REMARK                         _______ _______ _______ _____ _____    ______ ____
ROOT
ATOM      1  C   UNL     1      17.671   1.622  51.633  0.00  0.00    +0.000 A 
ATOM      2  C   UNL     1      16.323   1.314  51.829  0.00  0.00    +0.000 A 
ATOM      3  C   UNL     1      15.954   0.036  52.227  0.00  0.00    +0.000 A 
ATOM      4  C   UNL     1      16.945  -0.916  52.380  0.00  0.00    +0.000 A 
ATOM      5  N   UNL     1      18.257  -0.683  52.161  0.00  0.00    +0.000 NA
ATOM      6  C   UNL     1      18.620   0.562  51.768  0.00  0.00    +0.000 A 
ATOM      7  N   UNL     1      19.978   0.859  51.638  0.00  0.00    +0.000 N 
ATOM      8  C   UNL     1      20.936  -0.028  52.302  0.00  0.00    +0.000 C 
ATOM      9  C   UNL     1      22.209   0.796  52.604  0.00  0.00    +0.000 C 
ATOM     10  N   UNL     1      22.714   1.564  51.440  0.00  0.00    +0.000 N 
ATOM     11  C   UNL     1      24.034   2.010  51.293  0.00  0.00    +0.000 C 
ATOM     12  O   UNL     1      24.387   2.702  50.334  0.00  0.00    +0.000 OA
ATOM     13  C   UNL     1      21.693   2.208  50.597  0.00  0.00    +0.000 C 
ATOM     14  C   UNL     1      20.477   1.297  50.325  0.00  0.00    +0.000 C 
ENDROOT
BRANCH  11  15
ATOM     15  C   UNL     1      25.091   1.576  52.256  0.00  0.00    +0.000 A 
ATOM     16  C   UNL     1      25.437   2.454  53.272  0.00  0.00    +0.000 A 
ATOM     17  C   UNL     1      26.554   2.155  54.040  0.00  0.00    +0.000 A 
ATOM     18  C   UNL     1      27.276   0.985  53.781  0.00  0.00    +0.000 A 
ATOM     19  C   UNL     1      28.484   0.708  54.441  0.00  0.00    +0.000 A 
ATOM     20  C   UNL     1      29.176  -0.471  54.174  0.00  0.00    +0.000 A 
ATOM     21  C   UNL     1      28.636  -1.399  53.292  0.00  0.00    +0.000 A 
ATOM     22  C   UNL     1      27.439  -1.113  52.626  0.00  0.00    +0.000 A 
ATOM     23  C   UNL     1      26.770   0.088  52.815  0.00  0.00    +0.000 A 
ATOM     24  N   UNL     1      25.696   0.375  52.058  0.00  0.00    +0.000 NA
ENDBRANCH  11  15
BRANCH   1  25
ATOM     25  N   UNL     1      18.113   2.907  51.246  0.00  0.00    +0.000 N 
ATOM     26  H   UNL     1      19.015   3.207  51.506  0.00  0.00    +0.000 HD
BRANCH  25  28
ATOM     27  C   UNL     1      18.145   4.669  49.597  0.00  0.00    +0.000 C 
ATOM     28  C   UNL     1      17.265   3.794  50.473  0.00  0.00    +0.000 C 
ENDBRANCH  25  28
ENDBRANCH   1  25
TORSDOF 3
ENDMDL
MODEL 7
REMARK VINA RESULT:    -7.650      3.186      9.453
REMARK INTER + INTRA:          -8.934
REMARK INTER:                  -8.449
REMARK INTRA:                  -0.485
REMARK UNBOUND:                 0.057
REMARK  Name = 
REMARK  4 active torsions:
REMARK  status: ('A' for Active; 'I' for Inactive)
REMARK    1  A    between atoms: C_1  and  C_2
REMARK    2  A    between atoms: C_2  and  N_3
REMARK    3  A    between atoms: N_3  and  C_4
REMARK    4  A    between atoms: C_14  and  C_16
REMARK                            x       y       z     vdW  Elec       q    Type
REMARK                         _______ _______ _______ _____ _____    ______ ____
ROOT
ATOM      1  C   UNL     1      17.294   1.183  50.518  0.00  0.00    +0.000 A 
ATOM      2  C   UNL     1      16.075   0.673  50.067  0.00  0.00    +0.000 A 
ATOM      3  C   UNL     1      15.545   1.110  48.859  0.00  0.00    +0.000 A 
ATOM      4  C   UNL     1      16.233   2.080  48.153  0.00  0.00    +0.000 A 
ATOM      5  N   UNL     1      17.391   2.637  48.566  0.00  0.00    +0.000 NA
ATOM      6  C   UNL     1      17.909   2.216  49.745  0.00  0.00    +0.000 A 
ATOM      7  N   UNL     1      19.158   2.698  50.143  0.00  0.00    +0.000 N 
ATOM      8  C   UNL     1      20.015   3.298  49.119  0.00  0.00    +0.000 C 
ATOM      9  C   UNL     1      21.483   3.130  49.576  0.00  0.00    +0.000 C 
ATOM     10  N   UNL     1      21.725   3.558  50.975  0.00  0.00    +0.000 N 
ATOM     11  C   UNL     1      22.974   3.933  51.487  0.00  0.00    +0.000 C 
ATOM     12  O   UNL     1      23.133   4.218  52.677  0.00  0.00    +0.000 OA
ATOM     13  C   UNL     1      20.682   3.198  51.952  0.00  0.00    +0.000 C 
ATOM     14  C   UNL     1      19.254   3.429  51.416  0.00  0.00    +0.000 C 
ENDROOT
BRANCH  11  15
ATOM     15  C   UNL     1      24.147   4.096  50.577  0.00  0.00    +0.000 A 
ATOM     16  C   UNL     1      25.006   3.017  50.432  0.00  0.00    +0.000 A 
ATOM     17  C   UNL     1      26.204   3.222  49.761  0.00  0.00    +0.000 A 
ATOM     18  C   UNL     1      26.496   4.488  49.243  0.00  0.00    +0.000 A 
ATOM     19  C   UNL     1      27.748   4.776  48.676  0.00  0.00    +0.000 A 
ATOM     20  C   UNL     1      28.008   6.042  48.156  0.00  0.00    +0.000 A 
ATOM     21  C   UNL     1      27.004   7.002  48.149  0.00  0.00    +0.000 A 
ATOM     22  C   UNL     1      25.762   6.716  48.729  0.00  0.00    +0.000 A 
ATOM     23  C   UNL     1      25.503   5.489  49.324  0.00  0.00    +0.000 A 
ATOM     24  N   UNL     1      24.345   5.303  49.982  0.00  0.00    +0.000 NA
ENDBRANCH  11  15
BRANCH   1  25
ATOM     25  N   UNL     1      17.896   0.767  51.727  0.00  0.00    +0.000 N 
ATOM     26  H   UNL     1      18.077   1.433  52.431  0.00  0.00    +0.000 HD
BRANCH  25  28
ATOM     27  C   UNL     1      17.420  -1.158  53.101  0.00  0.00    +0.000 C 
ATOM     28  C   UNL     1      18.254  -0.620  51.952  0.00  0.00    +0.000 C 
ENDBRANCH  25  28
ENDBRANCH   1  25
TORSDOF 3
ENDMDL
MODEL 8
REMARK VINA RESULT:    -7.572      4.063      8.171
REMARK INTER + INTRA:          -8.842
REMARK INTER:                  -8.427
REMARK INTRA:                  -0.415
REMARK UNBOUND:                 0.057
REMARK  Name = 
REMARK  4 active torsions:
REMARK  status: ('A' for Active; 'I' for Inactive)
REMARK    1  A    between atoms: C_1  and  C_2
REMARK    2  A    between atoms: C_2  and  N_3
REMARK    3  A    between atoms: N_3  and  C_4
REMARK    4  A    between atoms: C_14  and  C_16
REMARK                            x       y       z     vdW  Elec       q    Type
REMARK                         _______ _______ _______ _____ _____    ______ ____
ROOT
ATOM      1  C   UNL     1      22.205   6.832  48.583  0.00  0.00    +0.000 A 
ATOM      2  C   UNL     1      22.041   7.909  47.708  0.00  0.00    +0.000 A 
ATOM      3  C   UNL     1      23.074   8.819  47.527  0.00  0.00    +0.000 A 
ATOM      4  C   UNL     1      24.234   8.650  48.261  0.00  0.00    +0.000 A 
ATOM      5  N   UNL     1      24.427   7.654  49.151  0.00  0.00    +0.000 NA
ATOM      6  C   UNL     1      23.420   6.766  49.333  0.00  0.00    +0.000 A 
ATOM      7  N   UNL     1      23.632   5.667  50.167  0.00  0.00    +0.000 N 
ATOM      8  C   UNL     1      25.017   5.305  50.478  0.00  0.00    +0.000 C 
ATOM      9  C   UNL     1      25.048   3.791  50.794  0.00  0.00    +0.000 C 
ATOM     10  N   UNL     1      24.017   3.364  51.770  0.00  0.00    +0.000 N 
ATOM     11  C   UNL     1      24.095   2.204  52.554  0.00  0.00    +0.000 C 
ATOM     12  O   UNL     1      23.178   1.861  53.304  0.00  0.00    +0.000 OA
ATOM     13  C   UNL     1      22.688   3.982  51.621  0.00  0.00    +0.000 C 
ATOM     14  C   UNL     1      22.760   5.497  51.339  0.00  0.00    +0.000 C 
ENDROOT
BRANCH  11  15
ATOM     15  C   UNL     1      25.348   1.390  52.577  0.00  0.00    +0.000 A 
ATOM     16  C   UNL     1      25.260   0.060  52.196  0.00  0.00    +0.000 A 
ATOM     17  C   UNL     1      26.362  -0.755  52.412  0.00  0.00    +0.000 A 
ATOM     18  C   UNL     1      27.518  -0.213  52.985  0.00  0.00    +0.000 A 
ATOM     19  C   UNL     1      28.606  -1.025  53.344  0.00  0.00    +0.000 A 
ATOM     20  C   UNL     1      29.751  -0.458  53.900  0.00  0.00    +0.000 A 
ATOM     21  C   UNL     1      29.833   0.921  54.046  0.00  0.00    +0.000 A 
ATOM     22  C   UNL     1      28.741   1.725  53.701  0.00  0.00    +0.000 A 
ATOM     23  C   UNL     1      27.560   1.179  53.217  0.00  0.00    +0.000 A 
ATOM     24  N   UNL     1      26.493   1.973  53.022  0.00  0.00    +0.000 NA
ENDBRANCH  11  15
BRANCH   1  25
ATOM     25  N   UNL     1      21.201   5.862  48.798  0.00  0.00    +0.000 N 
ATOM     26  H   UNL     1      20.715   5.850  49.655  0.00  0.00    +0.000 HD
BRANCH  25  28
ATOM     27  C   UNL     1      21.875   3.743  47.859  0.00  0.00    +0.000 C 
ATOM     28  C   UNL     1      20.872   4.881  47.780  0.00  0.00    +0.000 C 
ENDBRANCH  25  28
ENDBRANCH   1  25
TORSDOF 3
ENDMDL
MODEL 9
REMARK VINA RESULT:    -7.347      4.573      7.626
REMARK INTER + INTRA:          -8.578
REMARK INTER:                  -8.450
REMARK INTRA:                  -0.128
REMARK UNBOUND:                 0.057
REMARK  Name = 
REMARK  4 active torsions:
REMARK  status: ('A' for Active; 'I' for Inactive)
REMARK    1  A    between atoms: C_1  and  C_2
REMARK    2  A    between atoms: C_2  and  N_3
REMARK    3  A    between atoms: N_3  and  C_4
REMARK    4  A    between atoms: C_14  and  C_16
REMARK                            x       y       z     vdW  Elec       q    Type
REMARK                         _______ _______ _______ _____ _____    ______ ____
ROOT
ATOM      1  C   UNL     1      23.824   9.131  48.166  0.00  0.00    +0.000 A 
ATOM      2  C   UNL     1      24.401  10.181  47.449  0.00  0.00    +0.000 A 
ATOM      3  C   UNL     1      25.687  10.607  47.756  0.00  0.00    +0.000 A 
ATOM      4  C   UNL     1      26.348   9.995  48.805  0.00  0.00    +0.000 A 
ATOM      5  N   UNL     1      25.820   9.006  49.558  0.00  0.00    +0.000 NA
ATOM      6  C   UNL     1      24.564   8.591  49.263  0.00  0.00    +0.000 A 
ATOM      7  N   UNL     1      24.035   7.501  49.957  0.00  0.00    +0.000 N 
ATOM      8  C   UNL     1      24.971   6.621  50.660  0.00  0.00    +0.000 C 
ATOM      9  C   UNL     1      24.322   5.220  50.751  0.00  0.00    +0.000 C 
ATOM     10  N   UNL     1      22.927   5.240  51.254  0.00  0.00    +0.000 N 
ATOM     11  C   UNL     1      22.279   4.147  51.846  0.00  0.00    +0.000 C 
ATOM     12  O   UNL     1      21.095   4.198  52.188  0.00  0.00    +0.000 OA
ATOM     13  C   UNL     1      22.074   6.333  50.756  0.00  0.00    +0.000 C 
ATOM     14  C   UNL     1      22.799   7.695  50.731  0.00  0.00    +0.000 C 
ENDROOT
BRANCH  11  15
ATOM     15  C   UNL     1      23.039   2.903  52.173  0.00  0.00    +0.000 A 
ATOM     16  C   UNL     1      22.424   1.686  51.923  0.00  0.00    +0.000 A 
ATOM     17  C   UNL     1      23.028   0.537  52.413  0.00  0.00    +0.000 A 
ATOM     18  C   UNL     1      24.231   0.638  53.120  0.00  0.00    +0.000 A 
ATOM     19  C   UNL     1      24.807  -0.478  53.748  0.00  0.00    +0.000 A 
ATOM     20  C   UNL     1      26.012  -0.352  54.434  0.00  0.00    +0.000 A 
ATOM     21  C   UNL     1      26.671   0.871  54.448  0.00  0.00    +0.000 A 
ATOM     22  C   UNL     1      26.086   1.984  53.835  0.00  0.00    +0.000 A 
ATOM     23  C   UNL     1      24.848   1.904  53.210  0.00  0.00    +0.000 A 
ATOM     24  N   UNL     1      24.265   3.025  52.749  0.00  0.00    +0.000 NA
ENDBRANCH  11  15
BRANCH   1  25
ATOM     25  N   UNL     1      22.528   8.638  47.892  0.00  0.00    +0.000 N 
ATOM     26  H   UNL     1      22.359   7.669  47.942  0.00  0.00    +0.000 HD
BRANCH  25  28
ATOM     27  C   UNL     1      20.949  10.223  48.796  0.00  0.00    +0.000 C 
ATOM     28  C   UNL     1      21.443   9.532  47.536  0.00  0.00    +0.000 C 
ENDBRANCH  25  28
ENDBRANCH   1  25
TORSDOF 3
ENDMDL
