MODEL 1
REMARK VINA RESULT:    -7.700      0.000      0.000
REMARK INTER + INTRA:         -12.383
REMARK INTER:                 -10.851
REMARK INTRA:                  -1.531
REMARK UNBOUND:                -1.531
REMARK  Name = 
REMARK  8 active torsions:
REMARK  status: ('A' for Active; 'I' for Inactive)
REMARK    1  A    between atoms: C_1  and  C_2
REMARK    2  A    between atoms: C_2  and  N_3
REMARK    3  A    between atoms: N_3  and  C_4
REMARK    4  A    between atoms: C_4  and  C_5
REMARK    5  A    between atoms: N_8  and  C_9
REMARK    6  A    between atoms: C_16  and  C_17
REMARK    7  A    between atoms: N_21  and  C_22
REMARK    8  A    between atoms: C_22  and  C_23
REMARK                            x       y       z     vdW  Elec       q    Type
REMARK                         _______ _______ _______ _____ _____    ______ ____
ROOT
ATOM      1  C   UNL     1      22.041   2.840  51.292  0.00  0.00    +0.000 A 
ATOM      2  C   UNL     1      23.184   3.643  51.213  0.00  0.00    +0.000 A 
ATOM      3  F   UNL     1      23.113   4.899  50.750  0.00  0.00    +0.000 F 
ATOM      4  C   UNL     1      24.427   3.197  51.641  0.00  0.00    +0.000 A 
ATOM      5  C   UNL     1      24.556   1.916  52.194  0.00  0.00    +0.000 A 
ATOM      6  C   UNL     1      25.905   1.459  52.613  0.00  0.00    +0.000 A 
ATOM      7  O   UNL     1      26.852   2.230  52.516  0.00  0.00    +0.000 OA
ATOM      8  C   UNL     1      26.012   0.110  53.216  0.00  0.00    +0.000 A 
ATOM      9  C   UNL     1      24.876  -0.594  53.354  0.00  0.00    +0.000 A 
ATOM     10  N   UNL     1      23.599  -0.190  52.968  0.00  0.00    +0.000 N 
ATOM     11  C   UNL     1      23.443   1.067  52.340  0.00  0.00    +0.000 A 
ATOM     12  C   UNL     1      22.220   1.551  51.833  0.00  0.00    +0.000 A 
ATOM     13  F   UNL     1      21.157   0.733  51.783  0.00  0.00    +0.000 F 
ENDROOT
BRANCH   1  17
ATOM     14  C   UNL     1      18.641   2.835  49.925  0.00  0.00    +0.000 C 
ATOM     15  C   UNL     1      18.518   3.164  51.416  0.00  0.00    +0.000 C 
ATOM     16  C   UNL     1      19.816   3.884  51.726  0.00  0.00    +0.000 C 
ATOM     17  N   UNL     1      20.786   3.219  50.871  0.00  0.00    +0.000 N 
ATOM     18  C   UNL     1      20.138   2.527  49.749  0.00  0.00    +0.000 C 
BRANCH  14  19
ATOM     19  C   UNL     1      17.724   1.689  49.483  0.00  0.00    +0.000 C 
BRANCH  19  20
ATOM     20  N   UNL     1      18.271   0.383  49.859  0.00  0.00    +0.000 N 
ATOM     21  H   UNL     1      18.335  -0.202  49.026  0.00  0.00    +0.000 HD
ATOM     22  H   UNL     1      19.194   0.529  50.270  0.00  0.00    +0.000 HD
BRANCH  20  24
ATOM     23  C   UNL     1      18.208  -0.512  52.135  0.00  0.00    +0.000 C 
ATOM     24  C   UNL     1      17.427  -0.287  50.849  0.00  0.00    +0.000 C 
ENDBRANCH  20  24
ENDBRANCH  19  20
ENDBRANCH  14  19
ENDBRANCH   1  17
BRANCH   8  25
ATOM     25  C   UNL     1      27.266  -0.491  53.684  0.00  0.00    +0.000 C 
ATOM     26  O   UNL     1      27.940  -1.287  53.053  0.00  0.00    +0.000 OA
ATOM     27  O   UNL     1      27.709   0.002  54.859  0.00  0.00    +0.000 OA
ENDBRANCH   8  25
BRANCH  10  28
ATOM     28  C   UNL     1      22.385  -1.010  53.245  0.00  0.00    +0.000 C 
BRANCH  28  29
ATOM     29  C   UNL     1      21.795  -0.875  54.658  0.00  0.00    +0.000 C 
ATOM     30  F   UNL     1      22.692  -1.106  55.640  0.00  0.00    +0.000 F 
ATOM     31  F   UNL     1      21.304   0.377  54.847  0.00  0.00    +0.000 F 
ATOM     32  F   UNL     1      20.760  -1.729  54.836  0.00  0.00    +0.000 F 
ENDBRANCH  28  29
ENDBRANCH  10  28
TORSDOF 7
ENDMDL
MODEL 2
REMARK VINA RESULT:    -7.633      3.898      7.929
REMARK INTER + INTRA:         -12.289
REMARK INTER:                 -11.345
REMARK INTRA:                  -0.944
REMARK UNBOUND:                -1.531
REMARK  Name = 
REMARK  8 active torsions:
REMARK  status: ('A' for Active; 'I' for Inactive)
REMARK    1  A    between atoms: C_1  and  C_2
REMARK    2  A    between atoms: C_2  and  N_3
REMARK    3  A    between atoms: N_3  and  C_4
REMARK    4  A    between atoms: C_4  and  C_5
REMARK    5  A    between atoms: N_8  and  C_9
REMARK    6  A    between atoms: C_16  and  C_17
REMARK    7  A    between atoms: N_21  and  C_22
REMARK    8  A    between atoms: C_22  and  C_23
REMARK                            x       y       z     vdW  Elec       q    Type
REMARK                         _______ _______ _______ _____ _____    ______ ____
ROOT
ATOM      1  C   UNL     1      22.810   0.241  53.330  0.00  0.00    +0.000 A 
ATOM      2  C   UNL     1      21.923  -0.492  54.127  0.00  0.00    +0.000 A 
ATOM      3  F   UNL     1      22.321  -1.020  55.293  0.00  0.00    +0.000 F 
ATOM      4  C   UNL     1      20.594  -0.673  53.772  0.00  0.00    +0.000 A 
ATOM      5  C   UNL     1      20.099  -0.093  52.596  0.00  0.00    +0.000 A 
ATOM      6  C   UNL     1      18.681  -0.334  52.230  0.00  0.00    +0.000 A 
ATOM      7  O   UNL     1      17.971  -0.981  52.990  0.00  0.00    +0.000 OA
ATOM      8  C   UNL     1      18.176   0.310  50.995  0.00  0.00    +0.000 A 
ATOM      9  C   UNL     1      19.037   1.077  50.305  0.00  0.00    +0.000 A 
ATOM     10  N   UNL     1      20.372   1.317  50.625  0.00  0.00    +0.000 N 
ATOM     11  C   UNL     1      20.924   0.689  51.765  0.00  0.00    +0.000 A 
ATOM     12  C   UNL     1      22.277   0.788  52.146  0.00  0.00    +0.000 A 
ATOM     13  F   UNL     1      23.154   1.372  51.314  0.00  0.00    +0.000 F 
ENDROOT
BRANCH   1  17
ATOM     14  C   UNL     1      26.464  -0.009  53.424  0.00  0.00    +0.000 C 
ATOM     15  C   UNL     1      26.130   1.354  52.808  0.00  0.00    +0.000 C 
ATOM     16  C   UNL     1      24.813   1.723  53.464  0.00  0.00    +0.000 C 
ATOM     17  N   UNL     1      24.141   0.443  53.620  0.00  0.00    +0.000 N 
ATOM     18  C   UNL     1      25.088  -0.678  53.581  0.00  0.00    +0.000 C 
BRANCH  14  19
ATOM     19  C   UNL     1      27.450  -0.825  52.580  0.00  0.00    +0.000 C 
BRANCH  19  20
ATOM     20  N   UNL     1      27.964  -1.981  53.319  0.00  0.00    +0.000 N 
ATOM     21  H   UNL     1      27.649  -1.923  54.287  0.00  0.00    +0.000 HD
ATOM     22  H   UNL     1      27.610  -2.829  52.873  0.00  0.00    +0.000 HD
BRANCH  20  24
ATOM     23  C   UNL     1      29.997  -0.653  53.618  0.00  0.00    +0.000 C 
ATOM     24  C   UNL     1      29.427  -2.026  53.295  0.00  0.00    +0.000 C 
ENDBRANCH  20  24
ENDBRANCH  19  20
ENDBRANCH  14  19
ENDBRANCH   1  17
BRANCH   8  25
ATOM     25  C   UNL     1      16.804   0.177  50.492  0.00  0.00    +0.000 C 
ATOM     26  O   UNL     1      15.853   0.840  50.866  0.00  0.00    +0.000 OA
ATOM     27  O   UNL     1      16.677  -0.682  49.459  0.00  0.00    +0.000 OA
ENDBRANCH   8  25
BRANCH  10  28
ATOM     28  C   UNL     1      21.223   2.257  49.841  0.00  0.00    +0.000 C 
BRANCH  28  29
ATOM     29  C   UNL     1      21.642   1.773  48.443  0.00  0.00    +0.000 C 
ATOM     30  F   UNL     1      20.828   2.208  47.458  0.00  0.00    +0.000 F 
ATOM     31  F   UNL     1      22.895   2.205  48.149  0.00  0.00    +0.000 F 
ATOM     32  F   UNL     1      21.673   0.422  48.386  0.00  0.00    +0.000 F 
ENDBRANCH  28  29
ENDBRANCH  10  28
TORSDOF 7
ENDMDL
MODEL 3
REMARK VINA RESULT:    -7.615      3.953      6.337
REMARK INTER + INTRA:         -12.263
REMARK INTER:                 -10.929
REMARK INTRA:                  -1.334
REMARK UNBOUND:                -1.531
REMARK  Name = 
REMARK  8 active torsions:
REMARK  status: ('A' for Active; 'I' for Inactive)
REMARK    1  A    between atoms: C_1  and  C_2
REMARK    2  A    between atoms: C_2  and  N_3
REMARK    3  A    between atoms: N_3  and  C_4
REMARK    4  A    between atoms: C_4  and  C_5
REMARK    5  A    between atoms: N_8  and  C_9
REMARK    6  A    between atoms: C_16  and  C_17
REMARK    7  A    between atoms: N_21  and  C_22
REMARK    8  A    between atoms: C_22  and  C_23
REMARK                            x       y       z     vdW  Elec       q    Type
REMARK                         _______ _______ _______ _____ _____    ______ ____
ROOT
ATOM      1  C   UNL     1      22.862   4.251  50.988  0.00  0.00    +0.000 A 
ATOM      2  C   UNL     1      21.532   4.061  51.380  0.00  0.00    +0.000 A 
ATOM      3  F   UNL     1      20.569   4.904  50.983  0.00  0.00    +0.000 F 
ATOM      4  C   UNL     1      21.143   2.981  52.161  0.00  0.00    +0.000 A 
ATOM      5  C   UNL     1      22.092   2.029  52.557  0.00  0.00    +0.000 A 
ATOM      6  C   UNL     1      21.648   0.904  53.417  0.00  0.00    +0.000 A 
ATOM      7  O   UNL     1      20.462   0.808  53.708  0.00  0.00    +0.000 OA
ATOM      8  C   UNL     1      22.664  -0.103  53.803  0.00  0.00    +0.000 A 
ATOM      9  C   UNL     1      23.911   0.071  53.333  0.00  0.00    +0.000 A 
ATOM     10  N   UNL     1      24.354   1.117  52.526  0.00  0.00    +0.000 N 
ATOM     11  C   UNL     1      23.440   2.135  52.168  0.00  0.00    +0.000 A 
ATOM     12  C   UNL     1      23.786   3.283  51.427  0.00  0.00    +0.000 A 
ATOM     13  F   UNL     1      25.079   3.536  51.169  0.00  0.00    +0.000 F 
ENDROOT
BRANCH   1  17
ATOM     14  C   UNL     1      24.766   7.120  49.734  0.00  0.00    +0.000 C 
ATOM     15  C   UNL     1      24.965   5.983  48.727  0.00  0.00    +0.000 C 
ATOM     16  C   UNL     1      23.672   5.196  48.824  0.00  0.00    +0.000 C 
ATOM     17  N   UNL     1      23.311   5.309  50.229  0.00  0.00    +0.000 N 
ATOM     18  C   UNL     1      23.965   6.457  50.869  0.00  0.00    +0.000 C 
BRANCH  14  19
ATOM     19  C   UNL     1      26.084   7.748  50.201  0.00  0.00    +0.000 C 
BRANCH  19  20
ATOM     20  N   UNL     1      27.237   7.158  49.516  0.00  0.00    +0.000 N 
ATOM     21  H   UNL     1      27.848   6.725  50.209  0.00  0.00    +0.000 HD
ATOM     22  H   UNL     1      26.893   6.462  48.853  0.00  0.00    +0.000 HD
BRANCH  20  24
ATOM     23  C   UNL     1      28.211   7.707  47.340  0.00  0.00    +0.000 C 
ATOM     24  C   UNL     1      27.995   8.166  48.775  0.00  0.00    +0.000 C 
ENDBRANCH  20  24
ENDBRANCH  19  20
ENDBRANCH  14  19
ENDBRANCH   1  17
BRANCH   8  25
ATOM     25  C   UNL     1      22.393  -1.274  54.645  0.00  0.00    +0.000 C 
ATOM     26  O   UNL     1      21.569  -2.137  54.402  0.00  0.00    +0.000 OA
ATOM     27  O   UNL     1      23.234  -1.405  55.693  0.00  0.00    +0.000 OA
ENDBRANCH   8  25
BRANCH  10  28
ATOM     28  C   UNL     1      25.741   1.173  51.982  0.00  0.00    +0.000 C 
BRANCH  28  29
ATOM     29  C   UNL     1      26.825   1.648  52.963  0.00  0.00    +0.000 C 
ATOM     30  F   UNL     1      27.681   2.543  52.426  0.00  0.00    +0.000 F 
ATOM     31  F   UNL     1      26.257   2.235  54.047  0.00  0.00    +0.000 F 
ATOM     32  F   UNL     1      27.555   0.606  53.423  0.00  0.00    +0.000 F 
ENDBRANCH  28  29
ENDBRANCH  10  28
TORSDOF 7
ENDMDL
MODEL 4
REMARK VINA RESULT:    -7.443      3.554      7.125
REMARK INTER + INTRA:         -12.020
REMARK INTER:                 -10.910
REMARK INTRA:                  -1.110
REMARK UNBOUND:                -1.531
REMARK  Name = 
REMARK  8 active torsions:
REMARK  status: ('A' for Active; 'I' for Inactive)
REMARK    1  A    between atoms: C_1  and  C_2
REMARK    2  A    between atoms: C_2  and  N_3
REMARK    3  A    between atoms: N_3  and  C_4
REMARK    4  A    between atoms: C_4  and  C_5
REMARK    5  A    between atoms: N_8  and  C_9
REMARK    6  A    between atoms: C_16  and  C_17
REMARK    7  A    between atoms: N_21  and  C_22
REMARK    8  A    between atoms: C_22  and  C_23
REMARK                            x       y       z     vdW  Elec       q    Type
REMARK                         _______ _______ _______ _____ _____    ______ ____
ROOT
ATOM      1  C   UNL     1      24.043   2.936  51.934  0.00  0.00    +0.000 A 
ATOM      2  C   UNL     1      23.712   4.196  51.425  0.00  0.00    +0.000 A 
ATOM      3  F   UNL     1      24.664   5.087  51.117  0.00  0.00    +0.000 F 
ATOM      4  C   UNL     1      22.396   4.568  51.181  0.00  0.00    +0.000 A 
ATOM      5  C   UNL     1      21.357   3.659  51.423  0.00  0.00    +0.000 A 
ATOM      6  C   UNL     1      19.961   4.100  51.182  0.00  0.00    +0.000 A 
ATOM      7  O   UNL     1      19.760   5.219  50.727  0.00  0.00    +0.000 OA
ATOM      8  C   UNL     1      18.882   3.113  51.422  0.00  0.00    +0.000 A 
ATOM      9  C   UNL     1      19.250   1.886  51.827  0.00  0.00    +0.000 A 
ATOM     10  N   UNL     1      20.552   1.447  52.063  0.00  0.00    +0.000 N 
ATOM     11  C   UNL     1      21.619   2.360  51.900  0.00  0.00    +0.000 A 
ATOM     12  C   UNL     1      22.967   2.061  52.184  0.00  0.00    +0.000 A 
ATOM     13  F   UNL     1      23.270   0.907  52.799  0.00  0.00    +0.000 F 
ENDROOT
BRANCH   1  17
ATOM     14  C   UNL     1      26.973   1.379  53.490  0.00  0.00    +0.000 C 
ATOM     15  C   UNL     1      26.760   0.676  52.145  0.00  0.00    +0.000 C 
ATOM     16  C   UNL     1      26.142   1.756  51.278  0.00  0.00    +0.000 C 
ATOM     17  N   UNL     1      25.325   2.515  52.211  0.00  0.00    +0.000 N 
ATOM     18  C   UNL     1      25.757   2.316  53.600  0.00  0.00    +0.000 C 
BRANCH  14  19
ATOM     19  C   UNL     1      27.103   0.404  54.665  0.00  0.00    +0.000 C 
BRANCH  19  20
ATOM     20  N   UNL     1      28.480   0.332  55.158  0.00  0.00    +0.000 N 
ATOM     21  H   UNL     1      28.624   1.070  55.848  0.00  0.00    +0.000 HD
ATOM     22  H   UNL     1      28.623  -0.588  55.577  0.00  0.00    +0.000 HD
BRANCH  20  24
ATOM     23  C   UNL     1      29.989  -0.856  53.643  0.00  0.00    +0.000 C 
ATOM     24  C   UNL     1      29.448   0.499  54.074  0.00  0.00    +0.000 C 
ENDBRANCH  20  24
ENDBRANCH  19  20
ENDBRANCH  14  19
ENDBRANCH   1  17
BRANCH   8  25
ATOM     25  C   UNL     1      17.453   3.384  51.231  0.00  0.00    +0.000 C 
ATOM     26  O   UNL     1      16.690   3.769  52.100  0.00  0.00    +0.000 OA
ATOM     27  O   UNL     1      17.041   3.292  49.949  0.00  0.00    +0.000 OA
ENDBRANCH   8  25
BRANCH  10  28
ATOM     28  C   UNL     1      20.865   0.036  52.426  0.00  0.00    +0.000 C 
BRANCH  28  29
ATOM     29  C   UNL     1      20.383  -0.420  53.813  0.00  0.00    +0.000 C 
ATOM     30  F   UNL     1      20.502   0.532  54.763  0.00  0.00    +0.000 F 
ATOM     31  F   UNL     1      19.074  -0.778  53.764  0.00  0.00    +0.000 F 
ATOM     32  F   UNL     1      21.068  -1.509  54.233  0.00  0.00    +0.000 F 
ENDBRANCH  28  29
ENDBRANCH  10  28
TORSDOF 7
ENDMDL
MODEL 5
REMARK VINA RESULT:    -7.388      1.807      3.960
REMARK INTER + INTRA:         -11.943
REMARK INTER:                 -10.442
REMARK INTRA:                  -1.500
REMARK UNBOUND:                -1.531
REMARK  Name = 
REMARK  8 active torsions:
REMARK  status: ('A' for Active; 'I' for Inactive)
REMARK    1  A    between atoms: C_1  and  C_2
REMARK    2  A    between atoms: C_2  and  N_3
REMARK    3  A    between atoms: N_3  and  C_4
REMARK    4  A    between atoms: C_4  and  C_5
REMARK    5  A    between atoms: N_8  and  C_9
REMARK    6  A    between atoms: C_16  and  C_17
REMARK    7  A    between atoms: N_21  and  C_22
REMARK    8  A    between atoms: C_22  and  C_23
REMARK                            x       y       z     vdW  Elec       q    Type
REMARK                         _______ _______ _______ _____ _____    ______ ____
ROOT
ATOM      1  C   UNL     1      22.024   1.879  51.862  0.00  0.00    +0.000 A 
ATOM      2  C   UNL     1      21.969   0.665  52.556  0.00  0.00    +0.000 A 
ATOM      3  F   UNL     1      20.809   0.013  52.715  0.00  0.00    +0.000 F 
ATOM      4  C   UNL     1      23.108   0.063  53.075  0.00  0.00    +0.000 A 
ATOM      5  C   UNL     1      24.361   0.662  52.888  0.00  0.00    +0.000 A 
ATOM      6  C   UNL     1      25.553   0.008  53.483  0.00  0.00    +0.000 A 
ATOM      7  O   UNL     1      25.418  -1.059  54.069  0.00  0.00    +0.000 OA
ATOM      8  C   UNL     1      26.870   0.648  53.252  0.00  0.00    +0.000 A 
ATOM      9  C   UNL     1      26.887   1.766  52.506  0.00  0.00    +0.000 A 
ATOM     10  N   UNL     1      25.784   2.400  51.938  0.00  0.00    +0.000 N 
ATOM     11  C   UNL     1      24.496   1.864  52.168  0.00  0.00    +0.000 A 
ATOM     12  C   UNL     1      23.300   2.458  51.717  0.00  0.00    +0.000 A 
ATOM     13  F   UNL     1      23.337   3.685  51.175  0.00  0.00    +0.000 F 
ENDROOT
BRANCH   1  17
ATOM     14  C   UNL     1      18.855   2.642  50.188  0.00  0.00    +0.000 C 
ATOM     15  C   UNL     1      18.664   2.977  51.671  0.00  0.00    +0.000 C 
ATOM     16  C   UNL     1      20.053   3.388  52.121  0.00  0.00    +0.000 C 
ATOM     17  N   UNL     1      20.930   2.532  51.339  0.00  0.00    +0.000 N 
ATOM     18  C   UNL     1      20.258   2.011  50.142  0.00  0.00    +0.000 C 
BRANCH  14  19
ATOM     19  C   UNL     1      17.755   1.733  49.629  0.00  0.00    +0.000 C 
BRANCH  19  20
ATOM     20  N   UNL     1      18.052   0.318  49.865  0.00  0.00    +0.000 N 
ATOM     21  H   UNL     1      18.061  -0.173  48.971  0.00  0.00    +0.000 HD
ATOM     22  H   UNL     1      18.962   0.254  50.322  0.00  0.00    +0.000 HD
BRANCH  20  24
ATOM     23  C   UNL     1      17.693  -0.702  52.059  0.00  0.00    +0.000 C 
ATOM     24  C   UNL     1      17.055  -0.301  50.738  0.00  0.00    +0.000 C 
ENDBRANCH  20  24
ENDBRANCH  19  20
ENDBRANCH  14  19
ENDBRANCH   1  17
BRANCH   8  25
ATOM     25  C   UNL     1      28.143   0.133  53.766  0.00  0.00    +0.000 C 
ATOM     26  O   UNL     1      28.714   0.540  54.762  0.00  0.00    +0.000 OA
ATOM     27  O   UNL     1      28.608  -0.949  53.106  0.00  0.00    +0.000 OA
ENDBRANCH   8  25
BRANCH  10  28
ATOM     28  C   UNL     1      25.918   3.591  51.051  0.00  0.00    +0.000 C 
BRANCH  28  29
ATOM     29  C   UNL     1      26.177   3.292  49.565  0.00  0.00    +0.000 C 
ATOM     30  F   UNL     1      26.880   2.158  49.359  0.00  0.00    +0.000 F 
ATOM     31  F   UNL     1      25.002   3.163  48.898  0.00  0.00    +0.000 F 
ATOM     32  F   UNL     1      26.850   4.307  48.975  0.00  0.00    +0.000 F 
ENDBRANCH  28  29
ENDBRANCH  10  28
TORSDOF 7
ENDMDL
MODEL 6
REMARK VINA RESULT:    -7.150      3.500      7.783
REMARK INTER + INTRA:         -11.607
REMARK INTER:                 -10.744
REMARK INTRA:                  -0.864
REMARK UNBOUND:                -1.531
REMARK  Name = 
REMARK  8 active torsions:
REMARK  status: ('A' for Active; 'I' for Inactive)
REMARK    1  A    between atoms: C_1  and  C_2
REMARK    2  A    between atoms: C_2  and  N_3
REMARK    3  A    between atoms: N_3  and  C_4
REMARK    4  A    between atoms: C_4  and  C_5
REMARK    5  A    between atoms: N_8  and  C_9
REMARK    6  A    between atoms: C_16  and  C_17
REMARK    7  A    between atoms: N_21  and  C_22
REMARK    8  A    between atoms: C_22  and  C_23
REMARK                            x       y       z     vdW  Elec       q    Type
REMARK                         _______ _______ _______ _____ _____    ______ ____
ROOT
ATOM      1  C   UNL     1      23.285  -0.321  53.417  0.00  0.00    +0.000 A 
ATOM      2  C   UNL     1      22.089  -0.986  53.707  0.00  0.00    +0.000 A 
ATOM      3  F   UNL     1      22.078  -2.082  54.479  0.00  0.00    +0.000 F 
ATOM      4  C   UNL     1      20.862  -0.527  53.247  0.00  0.00    +0.000 A 
ATOM      5  C   UNL     1      20.798   0.649  52.487  0.00  0.00    +0.000 A 
ATOM      6  C   UNL     1      19.474   1.095  51.984  0.00  0.00    +0.000 A 
ATOM      7  O   UNL     1      18.474   0.458  52.292  0.00  0.00    +0.000 OA
ATOM      8  C   UNL     1      19.429   2.353  51.203  0.00  0.00    +0.000 A 
ATOM      9  C   UNL     1      20.589   3.006  51.022  0.00  0.00    +0.000 A 
ATOM     10  N   UNL     1      21.844   2.610  51.482  0.00  0.00    +0.000 N 
ATOM     11  C   UNL     1      21.957   1.390  52.188  0.00  0.00    +0.000 A 
ATOM     12  C   UNL     1      23.177   0.843  52.632  0.00  0.00    +0.000 A 
ATOM     13  F   UNL     1      24.332   1.404  52.239  0.00  0.00    +0.000 F 
ENDROOT
BRANCH   1  17
ATOM     14  C   UNL     1      26.907  -0.733  53.795  0.00  0.00    +0.000 C 
ATOM     15  C   UNL     1      26.390  -0.132  55.107  0.00  0.00    +0.000 C 
ATOM     16  C   UNL     1      24.980  -0.680  55.214  0.00  0.00    +0.000 C 
ATOM     17  N   UNL     1      24.532  -0.735  53.831  0.00  0.00    +0.000 N 
ATOM     18  C   UNL     1      25.661  -0.746  52.892  0.00  0.00    +0.000 C 
BRANCH  14  19
ATOM     19  C   UNL     1      28.087   0.044  53.200  0.00  0.00    +0.000 C 
BRANCH  19  20
ATOM     20  N   UNL     1      29.174   0.201  54.169  0.00  0.00    +0.000 N 
ATOM     21  H   UNL     1      28.895  -0.224  55.053  0.00  0.00    +0.000 HD
ATOM     22  H   UNL     1      30.005  -0.257  53.793  0.00  0.00    +0.000 HD
BRANCH  20  24
ATOM     23  C   UNL     1      28.595   2.493  53.540  0.00  0.00    +0.000 C 
ATOM     24  C   UNL     1      29.490   1.611  54.397  0.00  0.00    +0.000 C 
ENDBRANCH  20  24
ENDBRANCH  19  20
ENDBRANCH  14  19
ENDBRANCH   1  17
BRANCH   8  25
ATOM     25  C   UNL     1      18.206   2.933  50.637  0.00  0.00    +0.000 C 
ATOM     26  O   UNL     1      17.754   2.677  49.535  0.00  0.00    +0.000 OA
ATOM     27  O   UNL     1      17.518   3.715  51.495  0.00  0.00    +0.000 OA
ENDBRANCH   8  25
BRANCH  10  28
ATOM     28  C   UNL     1      23.061   3.452  51.304  0.00  0.00    +0.000 C 
BRANCH  28  29
ATOM     29  C   UNL     1      23.287   4.535  52.371  0.00  0.00    +0.000 C 
ATOM     30  F   UNL     1      23.912   5.634  51.897  0.00  0.00    +0.000 F 
ATOM     31  F   UNL     1      22.101   4.939  52.892  0.00  0.00    +0.000 F 
ATOM     32  F   UNL     1      24.022   4.056  53.402  0.00  0.00    +0.000 F 
ENDBRANCH  28  29
ENDBRANCH  10  28
TORSDOF 7
ENDMDL
MODEL 7
REMARK VINA RESULT:    -7.076      1.666      3.034
REMARK INTER + INTRA:         -11.503
REMARK INTER:                 -10.204
REMARK INTRA:                  -1.299
REMARK UNBOUND:                -1.531
REMARK  Name = 
REMARK  8 active torsions:
REMARK  status: ('A' for Active; 'I' for Inactive)
REMARK    1  A    between atoms: C_1  and  C_2
REMARK    2  A    between atoms: C_2  and  N_3
REMARK    3  A    between atoms: N_3  and  C_4
REMARK    4  A    between atoms: C_4  and  C_5
REMARK    5  A    between atoms: N_8  and  C_9
REMARK    6  A    between atoms: C_16  and  C_17
REMARK    7  A    between atoms: N_21  and  C_22
REMARK    8  A    between atoms: C_22  and  C_23
REMARK                            x       y       z     vdW  Elec       q    Type
REMARK                         _______ _______ _______ _____ _____    ______ ____
ROOT
ATOM      1  C   UNL     1      22.355   2.427  50.727  0.00  0.00    +0.000 A 
ATOM      2  C   UNL     1      23.477   3.254  50.599  0.00  0.00    +0.000 A 
ATOM      3  F   UNL     1      23.399   4.428  49.958  0.00  0.00    +0.000 F 
ATOM      4  C   UNL     1      24.704   2.919  51.156  0.00  0.00    +0.000 A 
ATOM      5  C   UNL     1      24.836   1.734  51.894  0.00  0.00    +0.000 A 
ATOM      6  C   UNL     1      26.169   1.391  52.448  0.00  0.00    +0.000 A 
ATOM      7  O   UNL     1      27.097   2.176  52.297  0.00  0.00    +0.000 OA
ATOM      8  C   UNL     1      26.278   0.146  53.244  0.00  0.00    +0.000 A 
ATOM      9  C   UNL     1      25.157  -0.574  53.416  0.00  0.00    +0.000 A 
ATOM     10  N   UNL     1      23.894  -0.275  52.905  0.00  0.00    +0.000 N 
ATOM     11  C   UNL     1      23.741   0.873  52.095  0.00  0.00    +0.000 A 
ATOM     12  C   UNL     1      22.538   1.236  51.456  0.00  0.00    +0.000 A 
ATOM     13  F   UNL     1      21.504   0.379  51.464  0.00  0.00    +0.000 F 
ENDROOT
BRANCH   1  17
ATOM     14  C   UNL     1      19.355   4.127  49.486  0.00  0.00    +0.000 C 
ATOM     15  C   UNL     1      20.025   3.471  48.275  0.00  0.00    +0.000 C 
ATOM     16  C   UNL     1      20.702   2.249  48.866  0.00  0.00    +0.000 C 
ATOM     17  N   UNL     1      21.118   2.696  50.186  0.00  0.00    +0.000 N 
ATOM     18  C   UNL     1      20.351   3.867  50.630  0.00  0.00    +0.000 C 
BRANCH  14  19
ATOM     19  C   UNL     1      19.044   5.612  49.271  0.00  0.00    +0.000 C 
BRANCH  19  20
ATOM     20  N   UNL     1      20.048   6.472  49.901  0.00  0.00    +0.000 N 
ATOM     21  H   UNL     1      19.576   7.149  50.501  0.00  0.00    +0.000 HD
ATOM     22  H   UNL     1      20.678   5.882  50.447  0.00  0.00    +0.000 HD
BRANCH  20  24
ATOM     23  C   UNL     1      21.274   8.542  49.454  0.00  0.00    +0.000 C 
ATOM     24  C   UNL     1      20.841   7.191  48.904  0.00  0.00    +0.000 C 
ENDBRANCH  20  24
ENDBRANCH  19  20
ENDBRANCH  14  19
ENDBRANCH   1  17
BRANCH   8  25
ATOM     25  C   UNL     1      27.518  -0.337  53.863  0.00  0.00    +0.000 C 
ATOM     26  O   UNL     1      28.356  -1.025  53.309  0.00  0.00    +0.000 OA
ATOM     27  O   UNL     1      27.740   0.149  55.102  0.00  0.00    +0.000 OA
ENDBRANCH   8  25
BRANCH  10  28
ATOM     28  C   UNL     1      22.690  -1.093  53.227  0.00  0.00    +0.000 C 
BRANCH  28  29
ATOM     29  C   UNL     1      22.028  -0.803  54.583  0.00  0.00    +0.000 C 
ATOM     30  F   UNL     1      21.577   0.464  54.701  0.00  0.00    +0.000 F 
ATOM     31  F   UNL     1      20.966  -1.627  54.777  0.00  0.00    +0.000 F 
ATOM     32  F   UNL     1      22.887  -1.030  55.603  0.00  0.00    +0.000 F 
ENDBRANCH  28  29
ENDBRANCH  10  28
TORSDOF 7
ENDMDL
MODEL 8
REMARK VINA RESULT:    -7.023      1.524      2.224
REMARK INTER + INTRA:         -11.428
REMARK INTER:                 -10.728
REMARK INTRA:                  -0.700
REMARK UNBOUND:                -1.531
REMARK  Name = 
REMARK  8 active torsions:
REMARK  status: ('A' for Active; 'I' for Inactive)
REMARK    1  A    between atoms: C_1  and  C_2
REMARK    2  A    between atoms: C_2  and  N_3
REMARK    3  A    between atoms: N_3  and  C_4
REMARK    4  A    between atoms: C_4  and  C_5
REMARK    5  A    between atoms: N_8  and  C_9
REMARK    6  A    between atoms: C_16  and  C_17
REMARK    7  A    between atoms: N_21  and  C_22
REMARK    8  A    between atoms: C_22  and  C_23
REMARK                            x       y       z     vdW  Elec       q    Type
REMARK                         _______ _______ _______ _____ _____    ______ ____
ROOT
ATOM      1  C   UNL     1      22.091   3.146  52.275  0.00  0.00    +0.000 A 
ATOM      2  C   UNL     1      23.167   4.024  52.447  0.00  0.00    +0.000 A 
ATOM      3  F   UNL     1      23.008   5.346  52.295  0.00  0.00    +0.000 F 
ATOM      4  C   UNL     1      24.429   3.578  52.816  0.00  0.00    +0.000 A 
ATOM      5  C   UNL     1      24.645   2.213  53.051  0.00  0.00    +0.000 A 
ATOM      6  C   UNL     1      26.013   1.766  53.413  0.00  0.00    +0.000 A 
ATOM      7  O   UNL     1      26.897   2.604  53.550  0.00  0.00    +0.000 OA
ATOM      8  C   UNL     1      26.212   0.323  53.680  0.00  0.00    +0.000 A 
ATOM      9  C   UNL     1      25.133  -0.473  53.589  0.00  0.00    +0.000 A 
ATOM     10  N   UNL     1      23.840  -0.080  53.250  0.00  0.00    +0.000 N 
ATOM     11  C   UNL     1      23.600   1.277  52.934  0.00  0.00    +0.000 A 
ATOM     12  C   UNL     1      22.358   1.781  52.500  0.00  0.00    +0.000 A 
ATOM     13  F   UNL     1      21.367   0.925  52.204  0.00  0.00    +0.000 F 
ENDROOT
BRANCH   1  17
ATOM     14  C   UNL     1      19.153   4.127  50.318  0.00  0.00    +0.000 C 
ATOM     15  C   UNL     1      18.833   2.765  50.943  0.00  0.00    +0.000 C 
ATOM     16  C   UNL     1      19.622   2.778  52.238  0.00  0.00    +0.000 C 
ATOM     17  N   UNL     1      20.822   3.525  51.897  0.00  0.00    +0.000 N 
ATOM     18  C   UNL     1      20.622   4.364  50.708  0.00  0.00    +0.000 C 
BRANCH  14  19
ATOM     19  C   UNL     1      18.905   4.169  48.806  0.00  0.00    +0.000 C 
BRANCH  19  20
ATOM     20  N   UNL     1      20.162   4.208  48.054  0.00  0.00    +0.000 N 
ATOM     21  H   UNL     1      20.112   4.956  47.363  0.00  0.00    +0.000 HD
ATOM     22  H   UNL     1      20.924   4.373  48.712  0.00  0.00    +0.000 HD
BRANCH  20  24
ATOM     23  C   UNL     1      21.744   2.356  47.821  0.00  0.00    +0.000 C 
ATOM     24  C   UNL     1      20.415   2.941  47.367  0.00  0.00    +0.000 C 
ENDBRANCH  20  24
ENDBRANCH  19  20
ENDBRANCH  14  19
ENDBRANCH   1  17
BRANCH   8  25
ATOM     25  C   UNL     1      27.496  -0.283  54.050  0.00  0.00    +0.000 C 
ATOM     26  O   UNL     1      28.108  -0.056  55.078  0.00  0.00    +0.000 OA
ATOM     27  O   UNL     1      27.919  -1.241  53.198  0.00  0.00    +0.000 OA
ENDBRANCH   8  25
BRANCH  10  28
ATOM     28  C   UNL     1      22.689  -1.028  53.263  0.00  0.00    +0.000 C 
BRANCH  28  29
ATOM     29  C   UNL     1      22.018  -1.247  54.629  0.00  0.00    +0.000 C 
ATOM     30  F   UNL     1      20.939  -2.057  54.574  0.00  0.00    +0.000 F 
ATOM     31  F   UNL     1      22.896  -1.804  55.502  0.00  0.00    +0.000 F 
ATOM     32  F   UNL     1      21.624  -0.072  55.171  0.00  0.00    +0.000 F 
ENDBRANCH  28  29
ENDBRANCH  10  28
TORSDOF 7
ENDMDL
MODEL 9
REMARK VINA RESULT:    -6.870      2.088      4.731
REMARK INTER + INTRA:         -11.213
REMARK INTER:                  -9.840
REMARK INTRA:                  -1.373
REMARK UNBOUND:                -1.531
REMARK  Name = 
REMARK  8 active torsions:
REMARK  status: ('A' for Active; 'I' for Inactive)
REMARK    1  A    between atoms: C_1  and  C_2
REMARK    2  A    between atoms: C_2  and  N_3
REMARK    3  A    between atoms: N_3  and  C_4
REMARK    4  A    between atoms: C_4  and  C_5
REMARK    5  A    between atoms: N_8  and  C_9
REMARK    6  A    between atoms: C_16  and  C_17
REMARK    7  A    between atoms: N_21  and  C_22
REMARK    8  A    between atoms: C_22  and  C_23
REMARK                            x       y       z     vdW  Elec       q    Type
REMARK                         _______ _______ _______ _____ _____    ______ ____
ROOT
ATOM      1  C   UNL     1      22.061   1.331  51.993  0.00  0.00    +0.000 A 
ATOM      2  C   UNL     1      22.124   0.120  52.691  0.00  0.00    +0.000 A 
ATOM      3  F   UNL     1      21.037  -0.651  52.834  0.00  0.00    +0.000 F 
ATOM      4  C   UNL     1      23.311  -0.357  53.230  0.00  0.00    +0.000 A 
ATOM      5  C   UNL     1      24.497   0.372  53.060  0.00  0.00    +0.000 A 
ATOM      6  C   UNL     1      25.742  -0.150  53.677  0.00  0.00    +0.000 A 
ATOM      7  O   UNL     1      25.711  -1.224  54.265  0.00  0.00    +0.000 OA
ATOM      8  C   UNL     1      26.986   0.625  53.464  0.00  0.00    +0.000 A 
ATOM      9  C   UNL     1      26.898   1.737  52.714  0.00  0.00    +0.000 A 
ATOM     10  N   UNL     1      25.742   2.249  52.126  0.00  0.00    +0.000 N 
ATOM     11  C   UNL     1      24.515   1.580  52.338  0.00  0.00    +0.000 A 
ATOM     12  C   UNL     1      23.270   2.042  51.865  0.00  0.00    +0.000 A 
ATOM     13  F   UNL     1      23.186   3.265  51.318  0.00  0.00    +0.000 F 
ENDROOT
BRANCH   1  17
ATOM     14  C   UNL     1      19.543   3.635  50.659  0.00  0.00    +0.000 C 
ATOM     15  C   UNL     1      19.982   2.738  49.496  0.00  0.00    +0.000 C 
ATOM     16  C   UNL     1      20.350   1.435  50.178  0.00  0.00    +0.000 C 
ATOM     17  N   UNL     1      20.912   1.863  51.449  0.00  0.00    +0.000 N 
ATOM     18  C   UNL     1      20.482   3.221  51.805  0.00  0.00    +0.000 C 
BRANCH  14  19
ATOM     19  C   UNL     1      19.607   5.130  50.324  0.00  0.00    +0.000 C 
BRANCH  19  20
ATOM     20  N   UNL     1      20.958   5.666  50.506  0.00  0.00    +0.000 N 
ATOM     21  H   UNL     1      20.909   6.498  51.094  0.00  0.00    +0.000 HD
ATOM     22  H   UNL     1      21.533   4.945  50.944  0.00  0.00    +0.000 HD
BRANCH  20  24
ATOM     23  C   UNL     1      23.082   5.883  49.310  0.00  0.00    +0.000 C 
ATOM     24  C   UNL     1      21.570   6.025  49.225  0.00  0.00    +0.000 C 
ENDBRANCH  20  24
ENDBRANCH  19  20
ENDBRANCH  14  19
ENDBRANCH   1  17
BRANCH   8  25
ATOM     25  C   UNL     1      28.299   0.250  54.001  0.00  0.00    +0.000 C 
ATOM     26  O   UNL     1      28.744   0.604  55.078  0.00  0.00    +0.000 OA
ATOM     27  O   UNL     1      28.966  -0.649  53.246  0.00  0.00    +0.000 OA
ENDBRANCH   8  25
BRANCH  10  28
ATOM     28  C   UNL     1      25.764   3.445  51.236  0.00  0.00    +0.000 C 
BRANCH  28  29
ATOM     29  C   UNL     1      26.088   3.173  49.758  0.00  0.00    +0.000 C 
ATOM     30  F   UNL     1      24.992   3.059  48.979  0.00  0.00    +0.000 F 
ATOM     31  F   UNL     1      26.842   4.179  49.247  0.00  0.00    +0.000 F 
ATOM     32  F   UNL     1      26.811   2.037  49.620  0.00  0.00    +0.000 F 
ENDBRANCH  28  29
ENDBRANCH  10  28
TORSDOF 7
ENDMDL
