MODEL 1
REMARK VINA RESULT:    -9.277      0.000      0.000
REMARK INTER + INTRA:         -15.187
REMARK INTER:                 -13.886
REMARK INTRA:                  -1.301
REMARK UNBOUND:                -1.301
REMARK  Name = 
REMARK  10 active torsions:
REMARK  status: ('A' for Active; 'I' for Inactive)
REMARK    1  A    between atoms: C_2  and  C_3
REMARK    2  A    between atoms: C_3  and  N_4
REMARK    3  A    between atoms: N_4  and  C_5
REMARK    4  A    between atoms: N_4  and  C_18
REMARK    5  A    between atoms: C_5  and  C_6
REMARK    6  A    between atoms: C_11  and  C_12
REMARK    7  A    between atoms: C_14  and  O_15
REMARK    8  A    between atoms: C_21  and  C_22
REMARK    9  A    between atoms: N_24  and  C_25
REMARK   10  A    between atoms: C_25  and  C_26
REMARK                            x       y       z     vdW  Elec       q    Type
REMARK                         _______ _______ _______ _____ _____    ______ ____
ROOT
ATOM      1  N   UNL     1      23.091   2.754  51.247  0.00  0.00    +0.000 N 
ENDROOT
BRANCH   1   2
ATOM      2  C   UNL     1      24.012   3.708  50.824  0.00  0.00    +0.000 A 
ATOM      3  C   UNL     1      23.939   5.066  51.148  0.00  0.00    +0.000 A 
ATOM      4  C   UNL     1      24.705   6.072  50.556  0.00  0.00    +0.000 A 
ATOM      5  C   UNL     1      25.694   5.742  49.649  0.00  0.00    +0.000 A 
ATOM      6  C   UNL     1      25.974   4.391  49.475  0.00  0.00    +0.000 A 
ATOM      7  C   UNL     1      25.145   3.402  50.052  0.00  0.00    +0.000 A 
BRANCH   5   8
ATOM      8  C   UNL     1      26.351   6.869  48.915  0.00  0.00    +0.000 C 
ATOM      9  O   UNL     1      26.050   7.109  47.749  0.00  0.00    +0.000 OA
ATOM     10  N   UNL     1      27.333   7.557  49.586  0.00  0.00    +0.000 N 
ATOM     11  H   UNL     1      27.478   7.362  50.541  0.00  0.00    +0.000 HD
BRANCH  10  12
ATOM     12  C   UNL     1      28.160   8.552  48.947  0.00  0.00    +0.000 C 
BRANCH  12  13
ATOM     13  C   UNL     1      29.460   7.927  48.607  0.00  0.00    +0.000 A 
ATOM     14  C   UNL     1      29.822   6.870  47.798  0.00  0.00    +0.000 A 
ATOM     15  C   UNL     1      31.230   6.761  47.889  0.00  0.00    +0.000 A 
ATOM     16  C   UNL     1      31.638   7.755  48.747  0.00  0.00    +0.000 A 
ATOM     17  O   UNL     1      30.571   8.473  49.185  0.00  0.00    +0.000 OA
ENDBRANCH  12  13
ENDBRANCH  10  12
ENDBRANCH   5   8
ENDBRANCH   1   2
BRANCH   1  18
ATOM     18  C   UNL     1      22.258   1.836  50.396  0.00  0.00    +0.000 C 
BRANCH  18  20
ATOM     19  C   UNL     1      22.320   2.146  47.740  0.00  0.00    +0.000 C 
ATOM     20  C   UNL     1      22.309   1.946  48.921  0.00  0.00    +0.000 C 
ENDBRANCH  18  20
ENDBRANCH   1  18
BRANCH   1  21
ATOM     21  C   UNL     1      23.120   2.306  52.671  0.00  0.00    +0.000 C 
BRANCH  21  22
ATOM     22  C   UNL     1      24.319   1.435  53.006  0.00  0.00    +0.000 A 
ATOM     23  C   UNL     1      24.254   0.040  52.967  0.00  0.00    +0.000 A 
ATOM     24  C   UNL     1      25.413  -0.731  53.055  0.00  0.00    +0.000 A 
ATOM     25  C   UNL     1      26.654  -0.163  53.276  0.00  0.00    +0.000 A 
ATOM     26  N   UNL     1      27.727  -0.959  53.349  0.00  0.00    +0.000 NA
ATOM     27  C   UNL     1      28.908  -0.397  53.657  0.00  0.00    +0.000 A 
ATOM     28  C   UNL     1      30.073  -1.326  53.782  0.00  0.00    +0.000 C 
ATOM     29  N   UNL     1      29.089   0.910  53.893  0.00  0.00    +0.000 NA
ATOM     30  C   UNL     1      27.998   1.670  53.780  0.00  0.00    +0.000 A 
ATOM     31  C   UNL     1      26.720   1.217  53.444  0.00  0.00    +0.000 A 
ATOM     32  C   UNL     1      25.567   2.022  53.287  0.00  0.00    +0.000 A 
BRANCH  30  33
ATOM     33  O   UNL     1      28.219   2.977  54.082  0.00  0.00    +0.000 OA
ATOM     34  H   UNL     1      27.945   3.320  54.910  0.00  0.00    +0.000 HD
ENDBRANCH  30  33
ENDBRANCH  21  22
ENDBRANCH   1  21
TORSDOF 9
ENDMDL
MODEL 2
REMARK VINA RESULT:    -9.245      1.414      1.970
REMARK INTER + INTRA:         -15.140
REMARK INTER:                 -13.703
REMARK INTRA:                  -1.437
REMARK UNBOUND:                -1.301
REMARK  Name = 
REMARK  10 active torsions:
REMARK  status: ('A' for Active; 'I' for Inactive)
REMARK    1  A    between atoms: C_2  and  C_3
REMARK    2  A    between atoms: C_3  and  N_4
REMARK    3  A    between atoms: N_4  and  C_5
REMARK    4  A    between atoms: N_4  and  C_18
REMARK    5  A    between atoms: C_5  and  C_6
REMARK    6  A    between atoms: C_11  and  C_12
REMARK    7  A    between atoms: C_14  and  O_15
REMARK    8  A    between atoms: C_21  and  C_22
REMARK    9  A    between atoms: N_24  and  C_25
REMARK   10  A    between atoms: C_25  and  C_26
REMARK                            x       y       z     vdW  Elec       q    Type
REMARK                         _______ _______ _______ _____ _____    ______ ____
ROOT
ATOM      1  N   UNL     1      23.674   3.505  51.138  0.00  0.00    +0.000 N 
ENDROOT
BRANCH   1   2
ATOM      2  C   UNL     1      24.687   4.040  50.345  0.00  0.00    +0.000 A 
ATOM      3  C   UNL     1      25.702   3.282  49.754  0.00  0.00    +0.000 A 
ATOM      4  C   UNL     1      26.848   3.809  49.155  0.00  0.00    +0.000 A 
ATOM      5  C   UNL     1      26.989   5.177  49.021  0.00  0.00    +0.000 A 
ATOM      6  C   UNL     1      25.899   5.967  49.371  0.00  0.00    +0.000 A 
ATOM      7  C   UNL     1      24.777   5.403  50.020  0.00  0.00    +0.000 A 
BRANCH   5   8
ATOM      8  C   UNL     1      28.313   5.684  48.542  0.00  0.00    +0.000 C 
ATOM      9  O   UNL     1      29.118   4.918  48.019  0.00  0.00    +0.000 OA
ATOM     10  N   UNL     1      28.592   7.008  48.778  0.00  0.00    +0.000 N 
ATOM     11  H   UNL     1      27.878   7.585  49.137  0.00  0.00    +0.000 HD
BRANCH  10  12
ATOM     12  C   UNL     1      29.888   7.587  48.520  0.00  0.00    +0.000 C 
BRANCH  12  13
ATOM     13  C   UNL     1      29.764   9.062  48.609  0.00  0.00    +0.000 A 
ATOM     14  C   UNL     1      30.605  10.106  48.284  0.00  0.00    +0.000 A 
ATOM     15  C   UNL     1      29.909  11.295  48.606  0.00  0.00    +0.000 A 
ATOM     16  C   UNL     1      28.689  10.903  49.106  0.00  0.00    +0.000 A 
ATOM     17  O   UNL     1      28.589   9.548  49.107  0.00  0.00    +0.000 OA
ENDBRANCH  12  13
ENDBRANCH  10  12
ENDBRANCH   5   8
ENDBRANCH   1   2
BRANCH   1  18
ATOM     18  C   UNL     1      22.439   2.776  50.686  0.00  0.00    +0.000 C 
BRANCH  18  20
ATOM     19  C   UNL     1      22.172   1.820  48.203  0.00  0.00    +0.000 C 
ATOM     20  C   UNL     1      22.355   2.245  49.309  0.00  0.00    +0.000 C 
ENDBRANCH  18  20
ENDBRANCH   1  18
BRANCH   1  21
ATOM     21  C   UNL     1      23.932   3.299  52.594  0.00  0.00    +0.000 C 
BRANCH  21  22
ATOM     22  C   UNL     1      24.885   2.153  52.883  0.00  0.00    +0.000 A 
ATOM     23  C   UNL     1      24.533   0.821  52.651  0.00  0.00    +0.000 A 
ATOM     24  C   UNL     1      25.491  -0.192  52.707  0.00  0.00    +0.000 A 
ATOM     25  C   UNL     1      26.798   0.059  53.080  0.00  0.00    +0.000 A 
ATOM     26  N   UNL     1      27.668  -0.957  53.113  0.00  0.00    +0.000 NA
ATOM     27  C   UNL     1      28.908  -0.709  53.567  0.00  0.00    +0.000 A 
ATOM     28  C   UNL     1      29.836  -1.879  53.638  0.00  0.00    +0.000 C 
ATOM     29  N   UNL     1      29.338   0.489  53.988  0.00  0.00    +0.000 NA
ATOM     30  C   UNL     1      28.446   1.478  53.911  0.00  0.00    +0.000 A 
ATOM     31  C   UNL     1      27.137   1.360  53.437  0.00  0.00    +0.000 A 
ATOM     32  C   UNL     1      26.199   2.412  53.319  0.00  0.00    +0.000 A 
BRANCH  30  33
ATOM     33  O   UNL     1      28.909   2.660  54.400  0.00  0.00    +0.000 OA
ATOM     34  H   UNL     1      29.804   2.904  54.265  0.00  0.00    +0.000 HD
ENDBRANCH  30  33
ENDBRANCH  21  22
ENDBRANCH   1  21
TORSDOF 9
ENDMDL
MODEL 3
REMARK VINA RESULT:    -8.716      2.929      5.141
REMARK INTER + INTRA:         -14.347
REMARK INTER:                 -13.038
REMARK INTRA:                  -1.309
REMARK UNBOUND:                -1.301
REMARK  Name = 
REMARK  10 active torsions:
REMARK  status: ('A' for Active; 'I' for Inactive)
REMARK    1  A    between atoms: C_2  and  C_3
REMARK    2  A    between atoms: C_3  and  N_4
REMARK    3  A    between atoms: N_4  and  C_5
REMARK    4  A    between atoms: N_4  and  C_18
REMARK    5  A    between atoms: C_5  and  C_6
REMARK    6  A    between atoms: C_11  and  C_12
REMARK    7  A    between atoms: C_14  and  O_15
REMARK    8  A    between atoms: C_21  and  C_22
REMARK    9  A    between atoms: N_24  and  C_25
REMARK   10  A    between atoms: C_25  and  C_26
REMARK                            x       y       z     vdW  Elec       q    Type
REMARK                         _______ _______ _______ _____ _____    ______ ____
ROOT
ATOM      1  N   UNL     1      25.580   1.576  51.824  0.00  0.00    +0.000 N 
ENDROOT
BRANCH   1   2
ATOM      2  C   UNL     1      25.596   2.694  50.994  0.00  0.00    +0.000 A 
ATOM      3  C   UNL     1      26.589   2.949  50.044  0.00  0.00    +0.000 A 
ATOM      4  C   UNL     1      26.757   4.160  49.368  0.00  0.00    +0.000 A 
ATOM      5  C   UNL     1      25.841   5.180  49.542  0.00  0.00    +0.000 A 
ATOM      6  C   UNL     1      24.701   4.892  50.286  0.00  0.00    +0.000 A 
ATOM      7  C   UNL     1      24.591   3.674  50.995  0.00  0.00    +0.000 A 
BRANCH   5   8
ATOM      8  C   UNL     1      26.174   6.509  48.939  0.00  0.00    +0.000 C 
ATOM      9  O   UNL     1      25.503   6.955  48.013  0.00  0.00    +0.000 OA
ATOM     10  N   UNL     1      27.286   7.149  49.429  0.00  0.00    +0.000 N 
ATOM     11  H   UNL     1      27.739   6.773  50.219  0.00  0.00    +0.000 HD
BRANCH  10  12
ATOM     12  C   UNL     1      27.817   8.351  48.831  0.00  0.00    +0.000 C 
BRANCH  12  13
ATOM     13  C   UNL     1      29.296   8.297  48.913  0.00  0.00    +0.000 A 
ATOM     14  C   UNL     1      30.266   9.238  49.187  0.00  0.00    +0.000 A 
ATOM     15  C   UNL     1      31.509   8.565  49.114  0.00  0.00    +0.000 A 
ATOM     16  C   UNL     1      31.219   7.257  48.800  0.00  0.00    +0.000 A 
ATOM     17  O   UNL     1      29.877   7.083  48.681  0.00  0.00    +0.000 OA
ENDBRANCH  12  13
ENDBRANCH  10  12
ENDBRANCH   5   8
ENDBRANCH   1   2
BRANCH   1  18
ATOM     18  C   UNL     1      26.467   0.363  51.755  0.00  0.00    +0.000 C 
BRANCH  18  20
ATOM     19  C   UNL     1      27.951  -0.226  53.900  0.00  0.00    +0.000 C 
ATOM     20  C   UNL     1      27.333   0.015  52.902  0.00  0.00    +0.000 C 
ENDBRANCH  18  20
ENDBRANCH   1  18
BRANCH   1  21
ATOM     21  C   UNL     1      24.868   1.661  53.133  0.00  0.00    +0.000 C 
BRANCH  21  22
ATOM     22  C   UNL     1      23.646   0.763  53.216  0.00  0.00    +0.000 A 
ATOM     23  C   UNL     1      23.626  -0.389  54.006  0.00  0.00    +0.000 A 
ATOM     24  C   UNL     1      22.432  -1.071  54.246  0.00  0.00    +0.000 A 
ATOM     25  C   UNL     1      21.245  -0.697  53.645  0.00  0.00    +0.000 A 
ATOM     26  N   UNL     1      20.135  -1.392  53.918  0.00  0.00    +0.000 NA
ATOM     27  C   UNL     1      19.012  -1.071  53.254  0.00  0.00    +0.000 A 
ATOM     28  C   UNL     1      17.806  -1.905  53.548  0.00  0.00    +0.000 C 
ATOM     29  N   UNL     1      18.923  -0.098  52.337  0.00  0.00    +0.000 NA
ATOM     30  C   UNL     1      20.046   0.588  52.118  0.00  0.00    +0.000 A 
ATOM     31  C   UNL     1      21.270   0.372  52.756  0.00  0.00    +0.000 A 
ATOM     32  C   UNL     1      22.455   1.119  52.555  0.00  0.00    +0.000 A 
BRANCH  30  33
ATOM     33  O   UNL     1      19.922   1.526  51.142  0.00  0.00    +0.000 OA
ATOM     34  H   UNL     1      20.096   2.427  51.333  0.00  0.00    +0.000 HD
ENDBRANCH  30  33
ENDBRANCH  21  22
ENDBRANCH   1  21
TORSDOF 9
ENDMDL
MODEL 4
REMARK VINA RESULT:    -8.708      2.004      7.320
REMARK INTER + INTRA:         -14.335
REMARK INTER:                 -12.943
REMARK INTRA:                  -1.392
REMARK UNBOUND:                -1.301
REMARK  Name = 
REMARK  10 active torsions:
REMARK  status: ('A' for Active; 'I' for Inactive)
REMARK    1  A    between atoms: C_2  and  C_3
REMARK    2  A    between atoms: C_3  and  N_4
REMARK    3  A    between atoms: N_4  and  C_5
REMARK    4  A    between atoms: N_4  and  C_18
REMARK    5  A    between atoms: C_5  and  C_6
REMARK    6  A    between atoms: C_11  and  C_12
REMARK    7  A    between atoms: C_14  and  O_15
REMARK    8  A    between atoms: C_21  and  C_22
REMARK    9  A    between atoms: N_24  and  C_25
REMARK   10  A    between atoms: C_25  and  C_26
REMARK                            x       y       z     vdW  Elec       q    Type
REMARK                         _______ _______ _______ _____ _____    ______ ____
ROOT
ATOM      1  N   UNL     1      22.663   5.051  50.495  0.00  0.00    +0.000 N 
ENDROOT
BRANCH   1   2
ATOM      2  C   UNL     1      22.881   3.875  51.209  0.00  0.00    +0.000 A 
ATOM      3  C   UNL     1      23.576   3.812  52.420  0.00  0.00    +0.000 A 
ATOM      4  C   UNL     1      24.007   2.634  53.034  0.00  0.00    +0.000 A 
ATOM      5  C   UNL     1      23.660   1.409  52.497  0.00  0.00    +0.000 A 
ATOM      6  C   UNL     1      22.765   1.411  51.432  0.00  0.00    +0.000 A 
ATOM      7  C   UNL     1      22.391   2.623  50.806  0.00  0.00    +0.000 A 
BRANCH   5   8
ATOM      8  C   UNL     1      24.303   0.195  53.091  0.00  0.00    +0.000 C 
ATOM      9  O   UNL     1      23.668  -0.536  53.846  0.00  0.00    +0.000 OA
ATOM     10  N   UNL     1      25.629  -0.009  52.799  0.00  0.00    +0.000 N 
ATOM     11  H   UNL     1      26.061   0.573  52.131  0.00  0.00    +0.000 HD
BRANCH  10  12
ATOM     12  C   UNL     1      26.415  -1.041  53.432  0.00  0.00    +0.000 C 
BRANCH  12  13
ATOM     13  C   UNL     1      27.802  -0.542  53.583  0.00  0.00    +0.000 A 
ATOM     14  C   UNL     1      29.042  -1.100  53.348  0.00  0.00    +0.000 A 
ATOM     15  C   UNL     1      29.996  -0.112  53.690  0.00  0.00    +0.000 A 
ATOM     16  C   UNL     1      29.280   0.984  54.112  0.00  0.00    +0.000 A 
ATOM     17  O   UNL     1      27.946   0.735  54.046  0.00  0.00    +0.000 OA
ENDBRANCH  12  13
ENDBRANCH  10  12
ENDBRANCH   5   8
ENDBRANCH   1   2
BRANCH   1  18
ATOM     18  C   UNL     1      22.238   6.390  51.033  0.00  0.00    +0.000 C 
BRANCH  18  20
ATOM     19  C   UNL     1      21.879   8.480  49.404  0.00  0.00    +0.000 C 
ATOM     20  C   UNL     1      21.991   7.514  50.104  0.00  0.00    +0.000 C 
ENDBRANCH  18  20
ENDBRANCH   1  18
BRANCH   1  21
ATOM     21  C   UNL     1      23.204   5.163  49.109  0.00  0.00    +0.000 C 
BRANCH  21  22
ATOM     22  C   UNL     1      24.721   5.225  49.055  0.00  0.00    +0.000 A 
ATOM     23  C   UNL     1      25.517   4.116  49.351  0.00  0.00    +0.000 A 
ATOM     24  C   UNL     1      26.886   4.126  49.079  0.00  0.00    +0.000 A 
ATOM     25  C   UNL     1      27.526   5.252  48.596  0.00  0.00    +0.000 A 
ATOM     26  N   UNL     1      28.841   5.195  48.355  0.00  0.00    +0.000 NA
ATOM     27  C   UNL     1      29.460   6.325  47.976  0.00  0.00    +0.000 A 
ATOM     28  C   UNL     1      30.938   6.234  47.766  0.00  0.00    +0.000 C 
ATOM     29  N   UNL     1      28.852   7.509  47.818  0.00  0.00    +0.000 NA
ATOM     30  C   UNL     1      27.537   7.512  48.040  0.00  0.00    +0.000 A 
ATOM     31  C   UNL     1      26.771   6.406  48.415  0.00  0.00    +0.000 A 
ATOM     32  C   UNL     1      25.370   6.395  48.617  0.00  0.00    +0.000 A 
BRANCH  30  33
ATOM     33  O   UNL     1      26.974   8.744  47.921  0.00  0.00    +0.000 OA
ATOM     34  H   UNL     1      27.282   9.340  47.267  0.00  0.00    +0.000 HD
ENDBRANCH  30  33
ENDBRANCH  21  22
ENDBRANCH   1  21
TORSDOF 9
ENDMDL
MODEL 5
REMARK VINA RESULT:    -8.476      6.248     10.091
REMARK INTER + INTRA:         -13.988
REMARK INTER:                 -12.779
REMARK INTRA:                  -1.209
REMARK UNBOUND:                -1.301
REMARK  Name = 
REMARK  10 active torsions:
REMARK  status: ('A' for Active; 'I' for Inactive)
REMARK    1  A    between atoms: C_2  and  C_3
REMARK    2  A    between atoms: C_3  and  N_4
REMARK    3  A    between atoms: N_4  and  C_5
REMARK    4  A    between atoms: N_4  and  C_18
REMARK    5  A    between atoms: C_5  and  C_6
REMARK    6  A    between atoms: C_11  and  C_12
REMARK    7  A    between atoms: C_14  and  O_15
REMARK    8  A    between atoms: C_21  and  C_22
REMARK    9  A    between atoms: N_24  and  C_25
REMARK   10  A    between atoms: C_25  and  C_26
REMARK                            x       y       z     vdW  Elec       q    Type
REMARK                         _______ _______ _______ _____ _____    ______ ____
ROOT
ATOM      1  N   UNL     1      20.671   0.810  50.970  0.00  0.00    +0.000 N 
ENDROOT
BRANCH   1   2
ATOM      2  C   UNL     1      19.407   0.318  51.287  0.00  0.00    +0.000 A 
ATOM      3  C   UNL     1      18.300   0.398  50.438  0.00  0.00    +0.000 A 
ATOM      4  C   UNL     1      16.983   0.127  50.813  0.00  0.00    +0.000 A 
ATOM      5  C   UNL     1      16.712  -0.357  52.079  0.00  0.00    +0.000 A 
ATOM      6  C   UNL     1      17.800  -0.688  52.880  0.00  0.00    +0.000 A 
ATOM      7  C   UNL     1      19.115  -0.352  52.486  0.00  0.00    +0.000 A 
BRANCH   5   8
ATOM      8  C   UNL     1      15.274  -0.452  52.482  0.00  0.00    +0.000 C 
ATOM      9  O   UNL     1      14.584  -1.393  52.101  0.00  0.00    +0.000 OA
ATOM     10  N   UNL     1      14.770   0.585  53.228  0.00  0.00    +0.000 N 
ATOM     11  H   UNL     1      15.391   1.274  53.560  0.00  0.00    +0.000 HD
BRANCH  10  12
ATOM     12  C   UNL     1      13.367   0.706  53.544  0.00  0.00    +0.000 C 
BRANCH  12  13
ATOM     13  C   UNL     1      13.060   2.140  53.756  0.00  0.00    +0.000 A 
ATOM     14  C   UNL     1      12.101   2.807  54.491  0.00  0.00    +0.000 A 
ATOM     15  C   UNL     1      12.330   4.188  54.286  0.00  0.00    +0.000 A 
ATOM     16  C   UNL     1      13.411   4.278  53.440  0.00  0.00    +0.000 A 
ATOM     17  O   UNL     1      13.865   3.039  53.117  0.00  0.00    +0.000 OA
ENDBRANCH  12  13
ENDBRANCH  10  12
ENDBRANCH   5   8
ENDBRANCH   1   2
BRANCH   1  18
ATOM     18  C   UNL     1      21.342   0.830  49.624  0.00  0.00    +0.000 C 
BRANCH  18  20
ATOM     19  C   UNL     1      22.573   3.002  48.667  0.00  0.00    +0.000 C 
ATOM     20  C   UNL     1      22.015   2.059  49.152  0.00  0.00    +0.000 C 
ENDBRANCH  18  20
ENDBRANCH   1  18
BRANCH   1  21
ATOM     21  C   UNL     1      21.351   1.723  51.935  0.00  0.00    +0.000 C 
BRANCH  21  22
ATOM     22  C   UNL     1      22.654   1.165  52.480  0.00  0.00    +0.000 A 
ATOM     23  C   UNL     1      22.699  -0.015  53.226  0.00  0.00    +0.000 A 
ATOM     24  C   UNL     1      23.918  -0.628  53.521  0.00  0.00    +0.000 A 
ATOM     25  C   UNL     1      25.126  -0.055  53.173  0.00  0.00    +0.000 A 
ATOM     26  N   UNL     1      26.259  -0.695  53.485  0.00  0.00    +0.000 NA
ATOM     27  C   UNL     1      27.424  -0.077  53.222  0.00  0.00    +0.000 A 
ATOM     28  C   UNL     1      28.666  -0.801  53.632  0.00  0.00    +0.000 C 
ATOM     29  N   UNL     1      27.531   1.137  52.664  0.00  0.00    +0.000 NA
ATOM     30  C   UNL     1      26.377   1.725  52.344  0.00  0.00    +0.000 A 
ATOM     31  C   UNL     1      25.104   1.184  52.541  0.00  0.00    +0.000 A 
ATOM     32  C   UNL     1      23.879   1.787  52.170  0.00  0.00    +0.000 A 
BRANCH  30  33
ATOM     33  O   UNL     1      26.534   2.975  51.833  0.00  0.00    +0.000 OA
ATOM     34  H   UNL     1      26.554   3.716  52.406  0.00  0.00    +0.000 HD
ENDBRANCH  30  33
ENDBRANCH  21  22
ENDBRANCH   1  21
TORSDOF 9
ENDMDL
MODEL 6
REMARK VINA RESULT:    -8.437      5.164      8.843
REMARK INTER + INTRA:         -13.930
REMARK INTER:                 -12.662
REMARK INTRA:                  -1.268
REMARK UNBOUND:                -1.301
REMARK  Name = 
REMARK  10 active torsions:
REMARK  status: ('A' for Active; 'I' for Inactive)
REMARK    1  A    between atoms: C_2  and  C_3
REMARK    2  A    between atoms: C_3  and  N_4
REMARK    3  A    between atoms: N_4  and  C_5
REMARK    4  A    between atoms: N_4  and  C_18
REMARK    5  A    between atoms: C_5  and  C_6
REMARK    6  A    between atoms: C_11  and  C_12
REMARK    7  A    between atoms: C_14  and  O_15
REMARK    8  A    between atoms: C_21  and  C_22
REMARK    9  A    between atoms: N_24  and  C_25
REMARK   10  A    between atoms: C_25  and  C_26
REMARK                            x       y       z     vdW  Elec       q    Type
REMARK                         _______ _______ _______ _____ _____    ______ ____
ROOT
ATOM      1  N   UNL     1      22.830   2.444  51.538  0.00  0.00    +0.000 N 
ENDROOT
BRANCH   1   2
ATOM      2  C   UNL     1      21.477   2.146  51.672  0.00  0.00    +0.000 A 
ATOM      3  C   UNL     1      20.938   0.865  51.523  0.00  0.00    +0.000 A 
ATOM      4  C   UNL     1      19.576   0.577  51.422  0.00  0.00    +0.000 A 
ATOM      5  C   UNL     1      18.644   1.586  51.576  0.00  0.00    +0.000 A 
ATOM      6  C   UNL     1      19.116   2.834  51.970  0.00  0.00    +0.000 A 
ATOM      7  C   UNL     1      20.504   3.100  52.012  0.00  0.00    +0.000 A 
BRANCH   5   8
ATOM      8  C   UNL     1      17.217   1.251  51.275  0.00  0.00    +0.000 C 
ATOM      9  O   UNL     1      16.939   0.243  50.632  0.00  0.00    +0.000 OA
ATOM     10  N   UNL     1      16.267   2.150  51.695  0.00  0.00    +0.000 N 
ATOM     11  H   UNL     1      16.548   2.901  52.267  0.00  0.00    +0.000 HD
BRANCH  10  12
ATOM     12  C   UNL     1      14.876   2.038  51.331  0.00  0.00    +0.000 C 
BRANCH  12  13
ATOM     13  C   UNL     1      14.103   3.010  52.141  0.00  0.00    +0.000 A 
ATOM     14  C   UNL     1      12.809   3.483  52.075  0.00  0.00    +0.000 A 
ATOM     15  C   UNL     1      12.667   4.405  53.139  0.00  0.00    +0.000 A 
ATOM     16  C   UNL     1      13.881   4.437  53.785  0.00  0.00    +0.000 A 
ATOM     17  O   UNL     1      14.758   3.589  53.190  0.00  0.00    +0.000 OA
ENDBRANCH  12  13
ENDBRANCH  10  12
ENDBRANCH   5   8
ENDBRANCH   1   2
BRANCH   1  18
ATOM     18  C   UNL     1      23.571   2.822  50.285  0.00  0.00    +0.000 C 
BRANCH  18  20
ATOM     19  C   UNL     1      22.417   2.419  47.906  0.00  0.00    +0.000 C 
ATOM     20  C   UNL     1      22.971   2.549  48.961  0.00  0.00    +0.000 C 
ENDBRANCH  18  20
ENDBRANCH   1  18
BRANCH   1  21
ATOM     21  C   UNL     1      23.622   2.768  52.762  0.00  0.00    +0.000 C 
BRANCH  21  22
ATOM     22  C   UNL     1      24.707   1.750  53.067  0.00  0.00    +0.000 A 
ATOM     23  C   UNL     1      24.486   0.376  52.949  0.00  0.00    +0.000 A 
ATOM     24  C   UNL     1      25.549  -0.527  53.012  0.00  0.00    +0.000 A 
ATOM     25  C   UNL     1      26.840  -0.116  53.283  0.00  0.00    +0.000 A 
ATOM     26  N   UNL     1      27.814  -1.032  53.329  0.00  0.00    +0.000 NA
ATOM     27  C   UNL     1      29.044  -0.625  53.686  0.00  0.00    +0.000 A 
ATOM     28  C   UNL     1      30.094  -1.686  53.777  0.00  0.00    +0.000 C 
ATOM     29  N   UNL     1      29.367   0.638  53.996  0.00  0.00    +0.000 NA
ATOM     30  C   UNL     1      28.372   1.522  53.909  0.00  0.00    +0.000 A 
ATOM     31  C   UNL     1      27.058   1.236  53.529  0.00  0.00    +0.000 A 
ATOM     32  C   UNL     1      26.008   2.175  53.399  0.00  0.00    +0.000 A 
BRANCH  30  33
ATOM     33  O   UNL     1      28.733   2.778  54.285  0.00  0.00    +0.000 OA
ATOM     34  H   UNL     1      29.635   2.980  54.439  0.00  0.00    +0.000 HD
ENDBRANCH  30  33
ENDBRANCH  21  22
ENDBRANCH   1  21
TORSDOF 9
ENDMDL
MODEL 7
REMARK VINA RESULT:    -8.236      2.989      4.399
REMARK INTER + INTRA:         -13.629
REMARK INTER:                 -12.407
REMARK INTRA:                  -1.222
REMARK UNBOUND:                -1.301
REMARK  Name = 
REMARK  10 active torsions:
REMARK  status: ('A' for Active; 'I' for Inactive)
REMARK    1  A    between atoms: C_2  and  C_3
REMARK    2  A    between atoms: C_3  and  N_4
REMARK    3  A    between atoms: N_4  and  C_5
REMARK    4  A    between atoms: N_4  and  C_18
REMARK    5  A    between atoms: C_5  and  C_6
REMARK    6  A    between atoms: C_11  and  C_12
REMARK    7  A    between atoms: C_14  and  O_15
REMARK    8  A    between atoms: C_21  and  C_22
REMARK    9  A    between atoms: N_24  and  C_25
REMARK   10  A    between atoms: C_25  and  C_26
REMARK                            x       y       z     vdW  Elec       q    Type
REMARK                         _______ _______ _______ _____ _____    ______ ____
ROOT
ATOM      1  N   UNL     1      23.884   5.115  49.639  0.00  0.00    +0.000 N 
ENDROOT
BRANCH   1   2
ATOM      2  C   UNL     1      25.154   5.362  49.126  0.00  0.00    +0.000 A 
ATOM      3  C   UNL     1      26.206   4.442  49.160  0.00  0.00    +0.000 A 
ATOM      4  C   UNL     1      27.539   4.739  48.868  0.00  0.00    +0.000 A 
ATOM      5  C   UNL     1      27.880   5.998  48.409  0.00  0.00    +0.000 A 
ATOM      6  C   UNL     1      26.840   6.875  48.123  0.00  0.00    +0.000 A 
ATOM      7  C   UNL     1      25.509   6.558  48.480  0.00  0.00    +0.000 A 
BRANCH   5   8
ATOM      8  C   UNL     1      29.339   6.310  48.292  0.00  0.00    +0.000 C 
ATOM      9  O   UNL     1      30.119   5.472  47.849  0.00  0.00    +0.000 OA
ATOM     10  N   UNL     1      29.750   7.534  48.760  0.00  0.00    +0.000 N 
ATOM     11  H   UNL     1      29.067   8.188  49.037  0.00  0.00    +0.000 HD
BRANCH  10  12
ATOM     12  C   UNL     1      31.143   7.900  48.861  0.00  0.00    +0.000 C 
BRANCH  12  13
ATOM     13  C   UNL     1      31.262   9.353  48.594  0.00  0.00    +0.000 A 
ATOM     14  C   UNL     1      31.945  10.091  47.650  0.00  0.00    +0.000 A 
ATOM     15  C   UNL     1      31.657  11.450  47.920  0.00  0.00    +0.000 A 
ATOM     16  C   UNL     1      30.819  11.456  49.011  0.00  0.00    +0.000 A 
ATOM     17  O   UNL     1      30.569  10.186  49.425  0.00  0.00    +0.000 OA
ENDBRANCH  12  13
ENDBRANCH  10  12
ENDBRANCH   5   8
ENDBRANCH   1   2
BRANCH   1  18
ATOM     18  C   UNL     1      22.680   4.589  48.906  0.00  0.00    +0.000 C 
BRANCH  18  20
ATOM     19  C   UNL     1      22.665   2.207  47.691  0.00  0.00    +0.000 C 
ATOM     20  C   UNL     1      22.733   3.264  48.252  0.00  0.00    +0.000 C 
ENDBRANCH  18  20
ENDBRANCH   1  18
BRANCH   1  21
ATOM     21  C   UNL     1      23.710   5.018  51.119  0.00  0.00    +0.000 C 
BRANCH  21  22
ATOM     22  C   UNL     1      23.485   3.598  51.609  0.00  0.00    +0.000 A 
ATOM     23  C   UNL     1      24.544   2.712  51.820  0.00  0.00    +0.000 A 
ATOM     24  C   UNL     1      24.340   1.500  52.481  0.00  0.00    +0.000 A 
ATOM     25  C   UNL     1      23.081   1.083  52.869  0.00  0.00    +0.000 A 
ATOM     26  N   UNL     1      22.954  -0.091  53.500  0.00  0.00    +0.000 NA
ATOM     27  C   UNL     1      21.714  -0.521  53.785  0.00  0.00    +0.000 A 
ATOM     28  C   UNL     1      21.610  -1.860  54.442  0.00  0.00    +0.000 C 
ATOM     29  N   UNL     1      20.590   0.147  53.486  0.00  0.00    +0.000 NA
ATOM     30  C   UNL     1      20.766   1.324  52.885  0.00  0.00    +0.000 A 
ATOM     31  C   UNL     1      21.997   1.895  52.554  0.00  0.00    +0.000 A 
ATOM     32  C   UNL     1      22.191   3.160  51.949  0.00  0.00    +0.000 A 
BRANCH  30  33
ATOM     33  O   UNL     1      19.599   1.938  52.552  0.00  0.00    +0.000 OA
ATOM     34  H   UNL     1      18.962   1.485  52.035  0.00  0.00    +0.000 HD
ENDBRANCH  30  33
ENDBRANCH  21  22
ENDBRANCH   1  21
TORSDOF 9
ENDMDL
MODEL 8
REMARK VINA RESULT:    -8.221      3.196      5.717
REMARK INTER + INTRA:         -13.606
REMARK INTER:                 -12.946
REMARK INTRA:                  -0.660
REMARK UNBOUND:                -1.301
REMARK  Name = 
REMARK  10 active torsions:
REMARK  status: ('A' for Active; 'I' for Inactive)
REMARK    1  A    between atoms: C_2  and  C_3
REMARK    2  A    between atoms: C_3  and  N_4
REMARK    3  A    between atoms: N_4  and  C_5
REMARK    4  A    between atoms: N_4  and  C_18
REMARK    5  A    between atoms: C_5  and  C_6
REMARK    6  A    between atoms: C_11  and  C_12
REMARK    7  A    between atoms: C_14  and  O_15
REMARK    8  A    between atoms: C_21  and  C_22
REMARK    9  A    between atoms: N_24  and  C_25
REMARK   10  A    between atoms: C_25  and  C_26
REMARK                            x       y       z     vdW  Elec       q    Type
REMARK                         _______ _______ _______ _____ _____    ______ ____
ROOT
ATOM      1  N   UNL     1      25.231   0.865  52.598  0.00  0.00    +0.000 N 
ENDROOT
BRANCH   1   2
ATOM      2  C   UNL     1      24.738   2.120  52.254  0.00  0.00    +0.000 A 
ATOM      3  C   UNL     1      24.645   2.593  50.942  0.00  0.00    +0.000 A 
ATOM      4  C   UNL     1      24.376   3.915  50.585  0.00  0.00    +0.000 A 
ATOM      5  C   UNL     1      24.073   4.845  51.562  0.00  0.00    +0.000 A 
ATOM      6  C   UNL     1      23.911   4.375  52.861  0.00  0.00    +0.000 A 
ATOM      7  C   UNL     1      24.241   3.040  53.191  0.00  0.00    +0.000 A 
BRANCH   5   8
ATOM      8  C   UNL     1      23.978   6.277  51.137  0.00  0.00    +0.000 C 
ATOM      9  O   UNL     1      22.881   6.803  50.972  0.00  0.00    +0.000 OA
ATOM     10  N   UNL     1      25.161   6.929  50.885  0.00  0.00    +0.000 N 
ATOM     11  H   UNL     1      26.006   6.474  51.104  0.00  0.00    +0.000 HD
BRANCH  10  12
ATOM     12  C   UNL     1      25.212   8.252  50.312  0.00  0.00    +0.000 C 
BRANCH  12  13
ATOM     13  C   UNL     1      26.603   8.515  49.873  0.00  0.00    +0.000 A 
ATOM     14  C   UNL     1      27.570   9.415  50.270  0.00  0.00    +0.000 A 
ATOM     15  C   UNL     1      28.704   9.168  49.460  0.00  0.00    +0.000 A 
ATOM     16  C   UNL     1      28.358   8.135  48.620  0.00  0.00    +0.000 A 
ATOM     17  O   UNL     1      27.085   7.727  48.867  0.00  0.00    +0.000 OA
ENDBRANCH  12  13
ENDBRANCH  10  12
ENDBRANCH   5   8
ENDBRANCH   1   2
BRANCH   1  18
ATOM     18  C   UNL     1      26.503   0.213  52.128  0.00  0.00    +0.000 C 
BRANCH  18  20
ATOM     19  C   UNL     1      27.006  -2.386  52.503  0.00  0.00    +0.000 C 
ATOM     20  C   UNL     1      26.731  -1.227  52.376  0.00  0.00    +0.000 C 
ENDBRANCH  18  20
ENDBRANCH   1  18
BRANCH   1  21
ATOM     21  C   UNL     1      24.674   0.176  53.800  0.00  0.00    +0.000 C 
BRANCH  21  22
ATOM     22  C   UNL     1      23.228  -0.257  53.632  0.00  0.00    +0.000 A 
ATOM     23  C   UNL     1      22.579  -1.054  54.578  0.00  0.00    +0.000 A 
ATOM     24  C   UNL     1      21.198  -1.250  54.521  0.00  0.00    +0.000 A 
ATOM     25  C   UNL     1      20.432  -0.748  53.486  0.00  0.00    +0.000 A 
ATOM     26  N   UNL     1      19.112  -0.972  53.491  0.00  0.00    +0.000 NA
ATOM     27  C   UNL     1      18.400  -0.558  52.429  0.00  0.00    +0.000 A 
ATOM     28  C   UNL     1      16.938  -0.871  52.447  0.00  0.00    +0.000 C 
ATOM     29  N   UNL     1      18.918   0.070  51.364  0.00  0.00    +0.000 NA
ATOM     30  C   UNL     1      20.232   0.297  51.415  0.00  0.00    +0.000 A 
ATOM     31  C   UNL     1      21.080  -0.060  52.466  0.00  0.00    +0.000 A 
ATOM     32  C   UNL     1      22.467   0.211  52.543  0.00  0.00    +0.000 A 
BRANCH  30  33
ATOM     33  O   UNL     1      20.721   0.885  50.291  0.00  0.00    +0.000 OA
ATOM     34  H   UNL     1      20.313   0.724  49.463  0.00  0.00    +0.000 HD
ENDBRANCH  30  33
ENDBRANCH  21  22
ENDBRANCH   1  21
TORSDOF 9
ENDMDL
MODEL 9
REMARK VINA RESULT:    -8.118      2.477      3.648
REMARK INTER + INTRA:         -13.452
REMARK INTER:                 -11.859
REMARK INTRA:                  -1.593
REMARK UNBOUND:                -1.301
REMARK  Name = 
REMARK  10 active torsions:
REMARK  status: ('A' for Active; 'I' for Inactive)
REMARK    1  A    between atoms: C_2  and  C_3
REMARK    2  A    between atoms: C_3  and  N_4
REMARK    3  A    between atoms: N_4  and  C_5
REMARK    4  A    between atoms: N_4  and  C_18
REMARK    5  A    between atoms: C_5  and  C_6
REMARK    6  A    between atoms: C_11  and  C_12
REMARK    7  A    between atoms: C_14  and  O_15
REMARK    8  A    between atoms: C_21  and  C_22
REMARK    9  A    between atoms: N_24  and  C_25
REMARK   10  A    between atoms: C_25  and  C_26
REMARK                            x       y       z     vdW  Elec       q    Type
REMARK                         _______ _______ _______ _____ _____    ______ ____
ROOT
ATOM      1  N   UNL     1      20.158   1.780  51.653  0.00  0.00    +0.000 N 
ENDROOT
BRANCH   1   2
ATOM      2  C   UNL     1      20.613   2.901  50.963  0.00  0.00    +0.000 A 
ATOM      3  C   UNL     1      21.146   2.862  49.671  0.00  0.00    +0.000 A 
ATOM      4  C   UNL     1      21.817   3.917  49.050  0.00  0.00    +0.000 A 
ATOM      5  C   UNL     1      21.900   5.146  49.678  0.00  0.00    +0.000 A 
ATOM      6  C   UNL     1      21.177   5.310  50.855  0.00  0.00    +0.000 A 
ATOM      7  C   UNL     1      20.552   4.205  51.478  0.00  0.00    +0.000 A 
BRANCH   5   8
ATOM      8  C   UNL     1      22.785   6.176  49.050  0.00  0.00    +0.000 C 
ATOM      9  O   UNL     1      22.416   6.782  48.048  0.00  0.00    +0.000 OA
ATOM     10  N   UNL     1      24.027   6.350  49.609  0.00  0.00    +0.000 N 
ATOM     11  H   UNL     1      24.235   5.885  50.452  0.00  0.00    +0.000 HD
BRANCH  10  12
ATOM     12  C   UNL     1      25.040   7.185  49.009  0.00  0.00    +0.000 C 
BRANCH  12  13
ATOM     13  C   UNL     1      26.261   6.368  48.814  0.00  0.00    +0.000 A 
ATOM     14  C   UNL     1      27.543   6.662  48.399  0.00  0.00    +0.000 A 
ATOM     15  C   UNL     1      28.259   5.442  48.419  0.00  0.00    +0.000 A 
ATOM     16  C   UNL     1      27.371   4.482  48.844  0.00  0.00    +0.000 A 
ATOM     17  O   UNL     1      26.155   5.035  49.091  0.00  0.00    +0.000 OA
ENDBRANCH  12  13
ENDBRANCH  10  12
ENDBRANCH   5   8
ENDBRANCH   1   2
BRANCH   1  18
ATOM     18  C   UNL     1      19.614   0.501  51.078  0.00  0.00    +0.000 C 
BRANCH  18  20
ATOM     19  C   UNL     1      17.829  -0.885  52.508  0.00  0.00    +0.000 C 
ATOM     20  C   UNL     1      18.587  -0.264  51.818  0.00  0.00    +0.000 C 
ENDBRANCH  18  20
ENDBRANCH   1  18
BRANCH   1  21
ATOM     21  C   UNL     1      20.522   1.623  53.092  0.00  0.00    +0.000 C 
BRANCH  21  22
ATOM     22  C   UNL     1      21.901   1.023  53.305  0.00  0.00    +0.000 A 
ATOM     23  C   UNL     1      22.076  -0.252  53.848  0.00  0.00    +0.000 A 
ATOM     24  C   UNL     1      23.327  -0.872  53.825  0.00  0.00    +0.000 A 
ATOM     25  C   UNL     1      24.454  -0.225  53.355  0.00  0.00    +0.000 A 
ATOM     26  N   UNL     1      25.623  -0.876  53.360  0.00  0.00    +0.000 NA
ATOM     27  C   UNL     1      26.722  -0.199  52.987  0.00  0.00    +0.000 A 
ATOM     28  C   UNL     1      28.016  -0.944  53.056  0.00  0.00    +0.000 C 
ATOM     29  N   UNL     1      26.730   1.086  52.606  0.00  0.00    +0.000 NA
ATOM     30  C   UNL     1      25.539   1.687  52.588  0.00  0.00    +0.000 A 
ATOM     31  C   UNL     1      24.321   1.092  52.928  0.00  0.00    +0.000 A 
ATOM     32  C   UNL     1      23.051   1.713  52.876  0.00  0.00    +0.000 A 
BRANCH  30  33
ATOM     33  O   UNL     1      25.604   3.002  52.248  0.00  0.00    +0.000 OA
ATOM     34  H   UNL     1      26.290   3.541  52.590  0.00  0.00    +0.000 HD
ENDBRANCH  30  33
ENDBRANCH  21  22
ENDBRANCH   1  21
TORSDOF 9
ENDMDL
