MODEL 1
REMARK VINA RESULT:    -8.252      0.000      0.000
REMARK INTER + INTRA:         -10.078
REMARK INTER:                  -9.699
REMARK INTRA:                  -0.379
REMARK UNBOUND:                -0.379
REMARK  Name = 
REMARK  4 active torsions:
REMARK  status: ('A' for Active; 'I' for Inactive)
REMARK    1  A    between atoms: C_1  and  C_2
REMARK    2  A    between atoms: C_2  and  N_3
REMARK    3  A    between atoms: N_3  and  C_4
REMARK    4  A    between atoms: C_14  and  C_16
REMARK                            x       y       z     vdW  Elec       q    Type
REMARK                         _______ _______ _______ _____ _____    ______ ____
ROOT
ATOM      1  C   UNL     1      20.564   4.448  50.021  0.00  0.00    +0.000 A 
ATOM      2  C   UNL     1      20.069   5.572  49.357  0.00  0.00    +0.000 A 
ATOM      3  C   UNL     1      20.560   6.835  49.665  0.00  0.00    +0.000 A 
ATOM      4  C   UNL     1      21.512   6.943  50.662  0.00  0.00    +0.000 A 
ATOM      5  N   UNL     1      21.994   5.896  51.362  0.00  0.00    +0.000 NA
ATOM      6  C   UNL     1      21.514   4.664  51.068  0.00  0.00    +0.000 A 
ATOM      7  N   UNL     1      22.082   3.557  51.693  0.00  0.00    +0.000 N 
ATOM      8  C   UNL     1      23.409   3.721  52.288  0.00  0.00    +0.000 C 
ATOM      9  C   UNL     1      24.103   2.344  52.246  0.00  0.00    +0.000 C 
ATOM     10  N   UNL     1      23.270   1.250  52.799  0.00  0.00    +0.000 N 
ATOM     11  C   UNL     1      23.765   0.100  53.418  0.00  0.00    +0.000 C 
ATOM     12  O   UNL     1      22.985  -0.736  53.879  0.00  0.00    +0.000 OA
ATOM     13  C   UNL     1      21.847   1.264  52.407  0.00  0.00    +0.000 C 
ATOM     14  C   UNL     1      21.227   2.671  52.499  0.00  0.00    +0.000 C 
ENDROOT
BRANCH  11  15
ATOM     15  C   UNL     1      25.196  -0.084  53.545  0.00  0.00    +0.000 A 
ATOM     16  C   UNL     1      26.125   0.662  54.251  0.00  0.00    +0.000 A 
ATOM     17  C   UNL     1      27.389   0.056  54.049  0.00  0.00    +0.000 A 
ATOM     18  C   UNL     1      28.709   0.324  54.442  0.00  0.00    +0.000 A 
ATOM     19  C   UNL     1      29.726  -0.541  54.014  0.00  0.00    +0.000 A 
ATOM     20  C   UNL     1      29.441  -1.653  53.215  0.00  0.00    +0.000 A 
ATOM     21  C   UNL     1      28.131  -1.939  52.819  0.00  0.00    +0.000 A 
ATOM     22  C   UNL     1      27.147  -1.061  53.257  0.00  0.00    +0.000 A 
ATOM     23  O   UNL     1      25.821  -1.163  52.977  0.00  0.00    +0.000 OA
ENDBRANCH  11  15
BRANCH   1  24
ATOM     24  N   UNL     1      20.121   3.137  49.744  0.00  0.00    +0.000 N 
ATOM     25  H   UNL     1      19.611   2.644  50.427  0.00  0.00    +0.000 HD
BRANCH  24  27
ATOM     26  C   UNL     1      21.560   1.534  48.655  0.00  0.00    +0.000 C 
ATOM     27  C   UNL     1      20.403   2.502  48.469  0.00  0.00    +0.000 C 
ENDBRANCH  24  27
ENDBRANCH   1  24
TORSDOF 3
ENDMDL
MODEL 2
REMARK VINA RESULT:    -8.088      2.003      2.286
REMARK INTER + INTRA:          -9.885
REMARK INTER:                  -9.400
REMARK INTRA:                  -0.485
REMARK UNBOUND:                -0.379
REMARK  Name = 
REMARK  4 active torsions:
REMARK  status: ('A' for Active; 'I' for Inactive)
REMARK    1  A    between atoms: C_1  and  C_2
REMARK    2  A    between atoms: C_2  and  N_3
REMARK    3  A    between atoms: N_3  and  C_4
REMARK    4  A    between atoms: C_14  and  C_16
REMARK                            x       y       z     vdW  Elec       q    Type
REMARK                         _______ _______ _______ _____ _____    ______ ____
ROOT
ATOM      1  C   UNL     1      22.338   5.033  48.287  0.00  0.00    +0.000 A 
ATOM      2  C   UNL     1      22.173   5.983  47.277  0.00  0.00    +0.000 A 
ATOM      3  C   UNL     1      23.150   6.946  47.061  0.00  0.00    +0.000 A 
ATOM      4  C   UNL     1      24.256   6.957  47.891  0.00  0.00    +0.000 A 
ATOM      5  N   UNL     1      24.446   6.089  48.905  0.00  0.00    +0.000 NA
ATOM      6  C   UNL     1      23.492   5.152  49.123  0.00  0.00    +0.000 A 
ATOM      7  N   UNL     1      23.723   4.173  50.086  0.00  0.00    +0.000 N 
ATOM      8  C   UNL     1      25.106   3.944  50.503  0.00  0.00    +0.000 C 
ATOM      9  C   UNL     1      25.213   2.470  50.945  0.00  0.00    +0.000 C 
ATOM     10  N   UNL     1      24.166   2.069  51.912  0.00  0.00    +0.000 N 
ATOM     11  C   UNL     1      24.313   1.083  52.891  0.00  0.00    +0.000 C 
ATOM     12  O   UNL     1      23.389   0.850  53.673  0.00  0.00    +0.000 OA
ATOM     13  C   UNL     1      22.802   2.555  51.621  0.00  0.00    +0.000 C 
ATOM     14  C   UNL     1      22.784   4.039  51.211  0.00  0.00    +0.000 C 
ENDROOT
BRANCH  11  15
ATOM     15  C   UNL     1      25.565   0.365  53.000  0.00  0.00    +0.000 A 
ATOM     16  C   UNL     1      25.866  -0.945  52.670  0.00  0.00    +0.000 A 
ATOM     17  C   UNL     1      27.236  -1.148  52.967  0.00  0.00    +0.000 A 
ATOM     18  C   UNL     1      28.132  -2.226  52.902  0.00  0.00    +0.000 A 
ATOM     19  C   UNL     1      29.457  -2.024  53.310  0.00  0.00    +0.000 A 
ATOM     20  C   UNL     1      29.889  -0.775  53.771  0.00  0.00    +0.000 A 
ATOM     21  C   UNL     1      29.013   0.312  53.836  0.00  0.00    +0.000 A 
ATOM     22  C   UNL     1      27.705   0.077  53.427  0.00  0.00    +0.000 A 
ATOM     23  O   UNL     1      26.706   0.998  53.420  0.00  0.00    +0.000 OA
ENDBRANCH  11  15
BRANCH   1  24
ATOM     24  N   UNL     1      21.393   4.019  48.548  0.00  0.00    +0.000 N 
ATOM     25  H   UNL     1      20.848   4.064  49.366  0.00  0.00    +0.000 HD
BRANCH  24  27
ATOM     26  C   UNL     1      21.733   1.643  48.288  0.00  0.00    +0.000 C 
ATOM     27  C   UNL     1      21.208   2.909  47.629  0.00  0.00    +0.000 C 
ENDBRANCH  24  27
ENDBRANCH   1  24
TORSDOF 3
ENDMDL
MODEL 3
REMARK VINA RESULT:    -8.054      2.277      3.131
REMARK INTER + INTRA:          -9.845
REMARK INTER:                  -9.341
REMARK INTRA:                  -0.504
REMARK UNBOUND:                -0.379
REMARK  Name = 
REMARK  4 active torsions:
REMARK  status: ('A' for Active; 'I' for Inactive)
REMARK    1  A    between atoms: C_1  and  C_2
REMARK    2  A    between atoms: C_2  and  N_3
REMARK    3  A    between atoms: N_3  and  C_4
REMARK    4  A    between atoms: C_14  and  C_16
REMARK                            x       y       z     vdW  Elec       q    Type
REMARK                         _______ _______ _______ _____ _____    ______ ____
ROOT
ATOM      1  C   UNL     1      18.912   1.218  51.269  0.00  0.00    +0.000 A 
ATOM      2  C   UNL     1      17.977   1.883  50.473  0.00  0.00    +0.000 A 
ATOM      3  C   UNL     1      18.167   3.220  50.145  0.00  0.00    +0.000 A 
ATOM      4  C   UNL     1      19.274   3.870  50.657  0.00  0.00    +0.000 A 
ATOM      5  N   UNL     1      20.186   3.287  51.463  0.00  0.00    +0.000 NA
ATOM      6  C   UNL     1      20.001   1.985  51.789  0.00  0.00    +0.000 A 
ATOM      7  N   UNL     1      20.989   1.331  52.520  0.00  0.00    +0.000 N 
ATOM      8  C   UNL     1      22.327   1.923  52.533  0.00  0.00    +0.000 C 
ATOM      9  C   UNL     1      23.335   0.772  52.729  0.00  0.00    +0.000 C 
ATOM     10  N   UNL     1      23.002  -0.112  53.870  0.00  0.00    +0.000 N 
ATOM     11  C   UNL     1      23.933  -0.818  54.636  0.00  0.00    +0.000 C 
ATOM     12  O   UNL     1      23.554  -1.500  55.590  0.00  0.00    +0.000 OA
ATOM     13  C   UNL     1      21.578  -0.476  54.007  0.00  0.00    +0.000 C 
ATOM     14  C   UNL     1      20.643   0.733  53.819  0.00  0.00    +0.000 C 
ENDROOT
BRANCH  11  15
ATOM     15  C   UNL     1      25.342  -0.715  54.322  0.00  0.00    +0.000 A 
ATOM     16  C   UNL     1      26.105  -1.442  53.424  0.00  0.00    +0.000 A 
ATOM     17  C   UNL     1      27.428  -0.943  53.498  0.00  0.00    +0.000 A 
ATOM     18  C   UNL     1      28.657  -1.253  52.896  0.00  0.00    +0.000 A 
ATOM     19  C   UNL     1      29.788  -0.505  53.252  0.00  0.00    +0.000 A 
ATOM     20  C   UNL     1      29.703   0.535  54.184  0.00  0.00    +0.000 A 
ATOM     21  C   UNL     1      28.486   0.862  54.789  0.00  0.00    +0.000 A 
ATOM     22  C   UNL     1      27.385   0.100  54.417  0.00  0.00    +0.000 A 
ATOM     23  O   UNL     1      26.122   0.257  54.893  0.00  0.00    +0.000 OA
ENDBRANCH  11  15
BRANCH   1  24
ATOM     24  N   UNL     1      18.787  -0.142  51.624  0.00  0.00    +0.000 N 
ATOM     25  H   UNL     1      19.559  -0.743  51.516  0.00  0.00    +0.000 HD
BRANCH  24  27
ATOM     26  C   UNL     1      17.860  -1.665  53.252  0.00  0.00    +0.000 C 
ATOM     27  C   UNL     1      17.540  -0.671  52.147  0.00  0.00    +0.000 C 
ENDBRANCH  24  27
ENDBRANCH   1  24
TORSDOF 3
ENDMDL
MODEL 4
REMARK VINA RESULT:    -7.961      1.306      1.411
REMARK INTER + INTRA:          -9.736
REMARK INTER:                  -9.324
REMARK INTRA:                  -0.412
REMARK UNBOUND:                -0.379
REMARK  Name = 
REMARK  4 active torsions:
REMARK  status: ('A' for Active; 'I' for Inactive)
REMARK    1  A    between atoms: C_1  and  C_2
REMARK    2  A    between atoms: C_2  and  N_3
REMARK    3  A    between atoms: N_3  and  C_4
REMARK    4  A    between atoms: C_14  and  C_16
REMARK                            x       y       z     vdW  Elec       q    Type
REMARK                         _______ _______ _______ _____ _____    ______ ____
ROOT
ATOM      1  C   UNL     1      19.899   3.058  50.023  0.00  0.00    +0.000 A 
ATOM      2  C   UNL     1      19.240   3.996  49.226  0.00  0.00    +0.000 A 
ATOM      3  C   UNL     1      19.610   5.334  49.274  0.00  0.00    +0.000 A 
ATOM      4  C   UNL     1      20.611   5.707  50.153  0.00  0.00    +0.000 A 
ATOM      5  N   UNL     1      21.252   4.850  50.973  0.00  0.00    +0.000 NA
ATOM      6  C   UNL     1      20.889   3.545  50.932  0.00  0.00    +0.000 A 
ATOM      7  N   UNL     1      21.617   2.624  51.683  0.00  0.00    +0.000 N 
ATOM      8  C   UNL     1      22.955   3.015  52.125  0.00  0.00    +0.000 C 
ATOM      9  C   UNL     1      23.790   1.725  52.254  0.00  0.00    +0.000 C 
ATOM     10  N   UNL     1      23.122   0.671  53.052  0.00  0.00    +0.000 N 
ATOM     11  C   UNL     1      23.781  -0.300  53.810  0.00  0.00    +0.000 C 
ATOM     12  O   UNL     1      23.130  -1.113  54.470  0.00  0.00    +0.000 OA
ATOM     13  C   UNL     1      21.682   0.480  52.787  0.00  0.00    +0.000 C 
ATOM     14  C   UNL     1      20.921   1.815  52.696  0.00  0.00    +0.000 C 
ENDROOT
BRANCH  11  15
ATOM     15  C   UNL     1      25.228  -0.322  53.842  0.00  0.00    +0.000 A 
ATOM     16  C   UNL     1      26.111   0.500  54.523  0.00  0.00    +0.000 A 
ATOM     17  C   UNL     1      27.420   0.052  54.217  0.00  0.00    +0.000 A 
ATOM     18  C   UNL     1      28.723   0.457  54.542  0.00  0.00    +0.000 A 
ATOM     19  C   UNL     1      29.802  -0.267  54.015  0.00  0.00    +0.000 A 
ATOM     20  C   UNL     1      29.594  -1.373  53.184  0.00  0.00    +0.000 A 
ATOM     21  C   UNL     1      28.302  -1.794  52.856  0.00  0.00    +0.000 A 
ATOM     22  C   UNL     1      27.255  -1.054  53.392  0.00  0.00    +0.000 A 
ATOM     23  O   UNL     1      25.934  -1.298  53.189  0.00  0.00    +0.000 OA
ENDBRANCH  11  15
BRANCH   1  24
ATOM     24  N   UNL     1      19.583   1.684  50.008  0.00  0.00    +0.000 N 
ATOM     25  H   UNL     1      20.311   1.020  50.014  0.00  0.00    +0.000 HD
BRANCH  24  27
ATOM     26  C   UNL     1      18.058   0.075  50.966  0.00  0.00    +0.000 C 
ATOM     27  C   UNL     1      18.204   1.229  49.986  0.00  0.00    +0.000 C 
ENDBRANCH  24  27
ENDBRANCH   1  24
TORSDOF 3
ENDMDL
MODEL 5
REMARK VINA RESULT:    -7.751      3.187      7.928
REMARK INTER + INTRA:          -9.489
REMARK INTER:                  -9.222
REMARK INTRA:                  -0.267
REMARK UNBOUND:                -0.379
REMARK  Name = 
REMARK  4 active torsions:
REMARK  status: ('A' for Active; 'I' for Inactive)
REMARK    1  A    between atoms: C_1  and  C_2
REMARK    2  A    between atoms: C_2  and  N_3
REMARK    3  A    between atoms: N_3  and  C_4
REMARK    4  A    between atoms: C_14  and  C_16
REMARK                            x       y       z     vdW  Elec       q    Type
REMARK                         _______ _______ _______ _____ _____    ______ ____
ROOT
ATOM      1  C   UNL     1      27.075   1.987  52.702  0.00  0.00    +0.000 A 
ATOM      2  C   UNL     1      28.353   1.533  53.032  0.00  0.00    +0.000 A 
ATOM      3  C   UNL     1      28.513   0.544  53.995  0.00  0.00    +0.000 A 
ATOM      4  C   UNL     1      27.386   0.060  54.633  0.00  0.00    +0.000 A 
ATOM      5  N   UNL     1      26.134   0.492  54.382  0.00  0.00    +0.000 NA
ATOM      6  C   UNL     1      25.974   1.461  53.448  0.00  0.00    +0.000 A 
ATOM      7  N   UNL     1      24.683   1.837  53.088  0.00  0.00    +0.000 N 
ATOM      8  C   UNL     1      23.594   0.911  53.398  0.00  0.00    +0.000 C 
ATOM      9  C   UNL     1      22.487   1.136  52.348  0.00  0.00    +0.000 C 
ATOM     10  N   UNL     1      22.107   2.559  52.191  0.00  0.00    +0.000 N 
ATOM     11  C   UNL     1      20.842   3.015  51.812  0.00  0.00    +0.000 C 
ATOM     12  O   UNL     1      20.618   4.225  51.746  0.00  0.00    +0.000 OA
ATOM     13  C   UNL     1      23.225   3.523  52.163  0.00  0.00    +0.000 C 
ATOM     14  C   UNL     1      24.271   3.240  53.257  0.00  0.00    +0.000 C 
ENDROOT
BRANCH  11  15
ATOM     15  C   UNL     1      19.792   2.058  51.532  0.00  0.00    +0.000 A 
ATOM     16  C   UNL     1      19.123   1.799  50.349  0.00  0.00    +0.000 A 
ATOM     17  C   UNL     1      18.191   0.766  50.612  0.00  0.00    +0.000 A 
ATOM     18  C   UNL     1      17.209   0.083  49.877  0.00  0.00    +0.000 A 
ATOM     19  C   UNL     1      16.457  -0.909  50.521  0.00  0.00    +0.000 A 
ATOM     20  C   UNL     1      16.674  -1.223  51.867  0.00  0.00    +0.000 A 
ATOM     21  C   UNL     1      17.652  -0.558  52.612  0.00  0.00    +0.000 A 
ATOM     22  C   UNL     1      18.378   0.422  51.946  0.00  0.00    +0.000 A 
ATOM     23  O   UNL     1      19.364   1.180  52.494  0.00  0.00    +0.000 OA
ENDBRANCH  11  15
BRANCH   1  24
ATOM     24  N   UNL     1      26.842   2.976  51.723  0.00  0.00    +0.000 N 
ATOM     25  H   UNL     1      26.851   3.926  51.983  0.00  0.00    +0.000 HD
BRANCH  24  27
ATOM     26  C   UNL     1      26.636   3.882  49.495  0.00  0.00    +0.000 C 
ATOM     27  C   UNL     1      26.590   2.618  50.338  0.00  0.00    +0.000 C 
ENDBRANCH  24  27
ENDBRANCH   1  24
TORSDOF 3
ENDMDL
MODEL 6
REMARK VINA RESULT:    -7.717      4.034      7.036
REMARK INTER + INTRA:          -9.449
REMARK INTER:                  -9.004
REMARK INTRA:                  -0.445
REMARK UNBOUND:                -0.379
REMARK  Name = 
REMARK  4 active torsions:
REMARK  status: ('A' for Active; 'I' for Inactive)
REMARK    1  A    between atoms: C_1  and  C_2
REMARK    2  A    between atoms: C_2  and  N_3
REMARK    3  A    between atoms: N_3  and  C_4
REMARK    4  A    between atoms: C_14  and  C_16
REMARK                            x       y       z     vdW  Elec       q    Type
REMARK                         _______ _______ _______ _____ _____    ______ ____
ROOT
ATOM      1  C   UNL     1      22.074   0.153  53.869  0.00  0.00    +0.000 A 
ATOM      2  C   UNL     1      21.978  -0.753  54.927  0.00  0.00    +0.000 A 
ATOM      3  C   UNL     1      23.122  -1.356  55.434  0.00  0.00    +0.000 A 
ATOM      4  C   UNL     1      24.336  -1.065  54.839  0.00  0.00    +0.000 A 
ATOM      5  N   UNL     1      24.481  -0.230  53.790  0.00  0.00    +0.000 NA
ATOM      6  C   UNL     1      23.366   0.356  53.290  0.00  0.00    +0.000 A 
ATOM      7  N   UNL     1      23.505   1.311  52.286  0.00  0.00    +0.000 N 
ATOM      8  C   UNL     1      24.817   1.936  52.120  0.00  0.00    +0.000 C 
ATOM      9  C   UNL     1      24.583   3.348  51.546  0.00  0.00    +0.000 C 
ATOM     10  N   UNL     1      23.701   3.359  50.357  0.00  0.00    +0.000 N 
ATOM     11  C   UNL     1      23.763   4.295  49.321  0.00  0.00    +0.000 C 
ATOM     12  O   UNL     1      23.005   4.194  48.354  0.00  0.00    +0.000 OA
ATOM     13  C   UNL     1      22.509   2.491  50.432  0.00  0.00    +0.000 C 
ATOM     14  C   UNL     1      22.836   1.095  50.993  0.00  0.00    +0.000 C 
ENDROOT
BRANCH  11  15
ATOM     15  C   UNL     1      24.744   5.358  49.376  0.00  0.00    +0.000 A 
ATOM     16  C   UNL     1      24.735   6.533  50.109  0.00  0.00    +0.000 A 
ATOM     17  C   UNL     1      25.934   7.224  49.805  0.00  0.00    +0.000 A 
ATOM     18  C   UNL     1      26.509   8.451  50.169  0.00  0.00    +0.000 A 
ATOM     19  C   UNL     1      27.755   8.797  49.627  0.00  0.00    +0.000 A 
ATOM     20  C   UNL     1      28.421   7.941  48.743  0.00  0.00    +0.000 A 
ATOM     21  C   UNL     1      27.866   6.712  48.374  0.00  0.00    +0.000 A 
ATOM     22  C   UNL     1      26.630   6.401  48.926  0.00  0.00    +0.000 A 
ATOM     23  O   UNL     1      25.926   5.263  48.690  0.00  0.00    +0.000 OA
ENDBRANCH  11  15
BRANCH   1  24
ATOM     24  N   UNL     1      20.955   0.812  53.320  0.00  0.00    +0.000 N 
ATOM     25  H   UNL     1      21.030   1.758  53.058  0.00  0.00    +0.000 HD
BRANCH  24  27
ATOM     26  C   UNL     1      19.376   0.078  51.646  0.00  0.00    +0.000 C 
ATOM     27  C   UNL     1      19.692   0.119  53.133  0.00  0.00    +0.000 C 
ENDBRANCH  24  27
ENDBRANCH   1  24
TORSDOF 3
ENDMDL
MODEL 7
REMARK VINA RESULT:    -7.302      2.705      4.037
REMARK INTER + INTRA:          -8.961
REMARK INTER:                  -8.798
REMARK INTRA:                  -0.163
REMARK UNBOUND:                -0.379
REMARK  Name = 
REMARK  4 active torsions:
REMARK  status: ('A' for Active; 'I' for Inactive)
REMARK    1  A    between atoms: C_1  and  C_2
REMARK    2  A    between atoms: C_2  and  N_3
REMARK    3  A    between atoms: N_3  and  C_4
REMARK    4  A    between atoms: C_14  and  C_16
REMARK                            x       y       z     vdW  Elec       q    Type
REMARK                         _______ _______ _______ _____ _____    ______ ____
ROOT
ATOM      1  C   UNL     1      18.506   2.298  51.345  0.00  0.00    +0.000 A 
ATOM      2  C   UNL     1      17.160   2.004  51.572  0.00  0.00    +0.000 A 
ATOM      3  C   UNL     1      16.758   0.688  51.765  0.00  0.00    +0.000 A 
ATOM      4  C   UNL     1      17.713  -0.308  51.688  0.00  0.00    +0.000 A 
ATOM      5  N   UNL     1      19.018  -0.084  51.432  0.00  0.00    +0.000 NA
ATOM      6  C   UNL     1      19.413   1.197  51.238  0.00  0.00    +0.000 A 
ATOM      7  N   UNL     1      20.772   1.464  51.091  0.00  0.00    +0.000 N 
ATOM      8  C   UNL     1      21.717   0.454  51.566  0.00  0.00    +0.000 C 
ATOM      9  C   UNL     1      23.009   1.191  51.973  0.00  0.00    +0.000 C 
ATOM     10  N   UNL     1      23.512   2.114  50.930  0.00  0.00    +0.000 N 
ATOM     11  C   UNL     1      24.854   2.449  50.734  0.00  0.00    +0.000 C 
ATOM     12  O   UNL     1      25.172   3.201  49.811  0.00  0.00    +0.000 OA
ATOM     13  C   UNL     1      22.490   2.937  50.253  0.00  0.00    +0.000 C 
ATOM     14  C   UNL     1      21.245   2.120  49.861  0.00  0.00    +0.000 C 
ENDROOT
BRANCH  11  15
ATOM     15  C   UNL     1      25.866   1.880  51.599  0.00  0.00    +0.000 A 
ATOM     16  C   UNL     1      26.112   0.556  51.921  0.00  0.00    +0.000 A 
ATOM     17  C   UNL     1      27.219   0.539  52.804  0.00  0.00    +0.000 A 
ATOM     18  C   UNL     1      27.931  -0.445  53.508  0.00  0.00    +0.000 A 
ATOM     19  C   UNL     1      29.003  -0.047  54.318  0.00  0.00    +0.000 A 
ATOM     20  C   UNL     1      29.367   1.300  54.428  0.00  0.00    +0.000 A 
ATOM     21  C   UNL     1      28.674   2.292  53.728  0.00  0.00    +0.000 A 
ATOM     22  C   UNL     1      27.614   1.865  52.937  0.00  0.00    +0.000 A 
ATOM     23  O   UNL     1      26.817   2.671  52.187  0.00  0.00    +0.000 OA
ENDBRANCH  11  15
BRANCH   1  24
ATOM     24  N   UNL     1      18.982   3.612  51.158  0.00  0.00    +0.000 N 
ATOM     25  H   UNL     1      19.792   3.906  51.635  0.00  0.00    +0.000 HD
BRANCH  24  27
ATOM     26  C   UNL     1      19.344   5.323  49.493  0.00  0.00    +0.000 C 
ATOM     27  C   UNL     1      18.300   4.541  50.274  0.00  0.00    +0.000 C 
ENDBRANCH  24  27
ENDBRANCH   1  24
TORSDOF 3
ENDMDL
MODEL 8
REMARK VINA RESULT:    -7.003      4.110      8.452
REMARK INTER + INTRA:          -8.610
REMARK INTER:                  -8.178
REMARK INTRA:                  -0.432
REMARK UNBOUND:                -0.379
REMARK  Name = 
REMARK  4 active torsions:
REMARK  status: ('A' for Active; 'I' for Inactive)
REMARK    1  A    between atoms: C_1  and  C_2
REMARK    2  A    between atoms: C_2  and  N_3
REMARK    3  A    between atoms: N_3  and  C_4
REMARK    4  A    between atoms: C_14  and  C_16
REMARK                            x       y       z     vdW  Elec       q    Type
REMARK                         _______ _______ _______ _____ _____    ______ ____
ROOT
ATOM      1  C   UNL     1      25.300   1.458  51.632  0.00  0.00    +0.000 A 
ATOM      2  C   UNL     1      26.638   1.100  51.812  0.00  0.00    +0.000 A 
ATOM      3  C   UNL     1      26.971   0.060  52.671  0.00  0.00    +0.000 A 
ATOM      4  C   UNL     1      25.954  -0.573  53.360  0.00  0.00    +0.000 A 
ATOM      5  N   UNL     1      24.651  -0.241  53.255  0.00  0.00    +0.000 NA
ATOM      6  C   UNL     1      24.323   0.776  52.422  0.00  0.00    +0.000 A 
ATOM      7  N   UNL     1      22.976   1.057  52.207  0.00  0.00    +0.000 N 
ATOM      8  C   UNL     1      22.004   0.013  52.530  0.00  0.00    +0.000 C 
ATOM      9  C   UNL     1      20.790   0.213  51.601  0.00  0.00    +0.000 C 
ATOM     10  N   UNL     1      20.276   1.602  51.597  0.00  0.00    +0.000 N 
ATOM     11  C   UNL     1      18.947   1.965  51.367  0.00  0.00    +0.000 C 
ATOM     12  O   UNL     1      18.615   3.151  51.423  0.00  0.00    +0.000 OA
ATOM     13  C   UNL     1      21.300   2.665  51.555  0.00  0.00    +0.000 C 
ATOM     14  C   UNL     1      22.463   2.399  52.527  0.00  0.00    +0.000 C 
ENDROOT
BRANCH  11  15
ATOM     15  C   UNL     1      17.962   0.939  51.100  0.00  0.00    +0.000 A 
ATOM     16  C   UNL     1      17.250   0.144  51.982  0.00  0.00    +0.000 A 
ATOM     17  C   UNL     1      16.412  -0.695  51.207  0.00  0.00    +0.000 A 
ATOM     18  C   UNL     1      15.494  -1.723  51.471  0.00  0.00    +0.000 A 
ATOM     19  C   UNL     1      14.847  -2.340  50.391  0.00  0.00    +0.000 A 
ATOM     20  C   UNL     1      15.102  -1.944  49.074  0.00  0.00    +0.000 A 
ATOM     21  C   UNL     1      16.007  -0.917  48.792  0.00  0.00    +0.000 A 
ATOM     22  C   UNL     1      16.634  -0.329  49.884  0.00  0.00    +0.000 A 
ATOM     23  O   UNL     1      17.546   0.677  49.820  0.00  0.00    +0.000 OA
ENDBRANCH  11  15
BRANCH   1  24
ATOM     24  N   UNL     1      24.894   2.492  50.763  0.00  0.00    +0.000 N 
ATOM     25  H   UNL     1      24.149   2.335  50.139  0.00  0.00    +0.000 HD
BRANCH  24  27
ATOM     26  C   UNL     1      26.329   3.943  49.472  0.00  0.00    +0.000 C 
ATOM     27  C   UNL     1      25.555   3.785  50.771  0.00  0.00    +0.000 C 
ENDBRANCH  24  27
ENDBRANCH   1  24
TORSDOF 3
ENDMDL
MODEL 9
REMARK VINA RESULT:    -6.969      3.796      5.408
REMARK INTER + INTRA:          -8.569
REMARK INTER:                  -8.463
REMARK INTRA:                  -0.106
REMARK UNBOUND:                -0.379
REMARK  Name = 
REMARK  4 active torsions:
REMARK  status: ('A' for Active; 'I' for Inactive)
REMARK    1  A    between atoms: C_1  and  C_2
REMARK    2  A    between atoms: C_2  and  N_3
REMARK    3  A    between atoms: N_3  and  C_4
REMARK    4  A    between atoms: C_14  and  C_16
REMARK                            x       y       z     vdW  Elec       q    Type
REMARK                         _______ _______ _______ _____ _____    ______ ____
ROOT
ATOM      1  C   UNL     1      18.171   1.714  51.215  0.00  0.00    +0.000 A 
ATOM      2  C   UNL     1      16.782   1.795  51.094  0.00  0.00    +0.000 A 
ATOM      3  C   UNL     1      16.152   3.033  51.126  0.00  0.00    +0.000 A 
ATOM      4  C   UNL     1      16.929   4.160  51.317  0.00  0.00    +0.000 A 
ATOM      5  N   UNL     1      18.267   4.135  51.480  0.00  0.00    +0.000 NA
ATOM      6  C   UNL     1      18.884   2.929  51.455  0.00  0.00    +0.000 A 
ATOM      7  N   UNL     1      20.276   2.889  51.502  0.00  0.00    +0.000 N 
ATOM      8  C   UNL     1      21.003   4.108  51.152  0.00  0.00    +0.000 C 
ATOM      9  C   UNL     1      22.370   3.679  50.581  0.00  0.00    +0.000 C 
ATOM     10  N   UNL     1      23.091   2.716  51.445  0.00  0.00    +0.000 N 
ATOM     11  C   UNL     1      24.480   2.599  51.530  0.00  0.00    +0.000 C 
ATOM     12  O   UNL     1      24.983   1.788  52.310  0.00  0.00    +0.000 OA
ATOM     13  C   UNL     1      22.270   1.636  52.027  0.00  0.00    +0.000 C 
ATOM     14  C   UNL     1      20.935   2.154  52.594  0.00  0.00    +0.000 C 
ENDROOT
BRANCH  11  15
ATOM     15  C   UNL     1      25.321   3.459  50.723  0.00  0.00    +0.000 A 
ATOM     16  C   UNL     1      26.427   3.145  49.953  0.00  0.00    +0.000 A 
ATOM     17  C   UNL     1      26.882   4.349  49.363  0.00  0.00    +0.000 A 
ATOM     18  C   UNL     1      27.945   4.722  48.526  0.00  0.00    +0.000 A 
ATOM     19  C   UNL     1      28.067   6.068  48.154  0.00  0.00    +0.000 A 
ATOM     20  C   UNL     1      27.150   7.027  48.598  0.00  0.00    +0.000 A 
ATOM     21  C   UNL     1      26.080   6.672  49.426  0.00  0.00    +0.000 A 
ATOM     22  C   UNL     1      25.991   5.331  49.779  0.00  0.00    +0.000 A 
ATOM     23  O   UNL     1      25.032   4.790  50.576  0.00  0.00    +0.000 OA
ENDBRANCH  11  15
BRANCH   1  24
ATOM     24  N   UNL     1      18.873   0.491  51.175  0.00  0.00    +0.000 N 
ATOM     25  H   UNL     1      19.741   0.447  50.712  0.00  0.00    +0.000 HD
BRANCH  24  27
ATOM     26  C   UNL     1      18.912  -0.813  53.207  0.00  0.00    +0.000 C 
ATOM     27  C   UNL     1      18.338  -0.704  51.802  0.00  0.00    +0.000 C 
ENDBRANCH  24  27
ENDBRANCH   1  24
TORSDOF 3
ENDMDL
