MODEL 1
REMARK VINA RESULT:    -9.374      0.000      0.000
REMARK INTER + INTRA:         -13.919
REMARK INTER:                 -12.662
REMARK INTRA:                  -1.256
REMARK UNBOUND:                -1.256
REMARK  Name = 
REMARK  9 active torsions:
REMARK  status: ('A' for Active; 'I' for Inactive)
REMARK    1  A    between atoms: C_1  and  N_2
REMARK    2  A    between atoms: N_2  and  C_3
REMARK    3  A    between atoms: N_2  and  C_4
REMARK    4  A    between atoms: C_4  and  C_5
REMARK    5  A    between atoms: C_5  and  C_6
REMARK    6  A    between atoms: C_6  and  N_7
REMARK    7  A    between atoms: C_9  and  C_10
REMARK    8  A    between atoms: C_11  and  C_12
REMARK    9  A    between atoms: N_14  and  C_15
REMARK                            x       y       z     vdW  Elec       q    Type
REMARK                         _______ _______ _______ _____ _____    ______ ____
ROOT
ATOM      1  C   UNL     1      22.827   0.962  52.899  0.00  0.00    +0.000 C 
ATOM      2  C   UNL     1      23.608   0.089  53.556  0.00  0.00    +0.000 C 
ATOM      3  C   UNL     1      22.767  -0.563  54.586  0.00  0.00    +0.000 C 
ATOM      4  O   UNL     1      23.102  -1.431  55.363  0.00  0.00    +0.000 OA
ATOM      5  N   UNL     1      21.532  -0.021  54.495  0.00  0.00    +0.000 N 
ATOM      6  C   UNL     1      21.475   0.891  53.508  0.00  0.00    +0.000 C 
ATOM      7  O   UNL     1      20.490   1.533  53.186  0.00  0.00    +0.000 OA
ATOM      8  H   UNL     1      20.774  -0.261  55.075  0.00  0.00    +0.000 HD
ENDROOT
BRANCH   2   9
ATOM      9  C   UNL     1      24.969  -0.238  53.345  0.00  0.00    +0.000 A 
ATOM     10  C   UNL     1      25.402  -1.482  52.942  0.00  0.00    +0.000 A 
ATOM     11  N   UNL     1      26.771  -1.454  52.905  0.00  0.00    +0.000 N 
ATOM     12  C   UNL     1      27.604  -2.591  52.587  0.00  0.00    +0.000 C 
ATOM     13  C   UNL     1      27.237  -0.201  53.251  0.00  0.00    +0.000 A 
ATOM     14  C   UNL     1      28.547   0.292  53.360  0.00  0.00    +0.000 A 
ATOM     15  C   UNL     1      28.719   1.624  53.747  0.00  0.00    +0.000 A 
ATOM     16  C   UNL     1      27.622   2.439  54.007  0.00  0.00    +0.000 A 
ATOM     17  C   UNL     1      26.318   1.938  53.898  0.00  0.00    +0.000 A 
ATOM     18  C   UNL     1      26.114   0.592  53.522  0.00  0.00    +0.000 A 
ENDBRANCH   2   9
BRANCH   1  21
ATOM     19  N   UNL     1      24.007   3.568  50.747  0.00  0.00    +0.000 N 
ATOM     20  C   UNL     1      24.013   2.895  51.941  0.00  0.00    +0.000 A 
ATOM     21  C   UNL     1      23.147   1.831  51.832  0.00  0.00    +0.000 A 
ATOM     22  C   UNL     1      22.659   1.796  50.494  0.00  0.00    +0.000 A 
ATOM     23  C   UNL     1      21.781   0.947  49.784  0.00  0.00    +0.000 A 
ATOM     24  C   UNL     1      21.511   1.201  48.434  0.00  0.00    +0.000 A 
ATOM     25  C   UNL     1      22.109   2.274  47.783  0.00  0.00    +0.000 A 
ATOM     26  C   UNL     1      22.981   3.130  48.462  0.00  0.00    +0.000 A 
ATOM     27  C   UNL     1      23.235   2.884  49.823  0.00  0.00    +0.000 A 
BRANCH  19  28
ATOM     28  C   UNL     1      24.769   4.779  50.489  0.00  0.00    +0.000 C 
BRANCH  28  29
ATOM     29  C   UNL     1      26.073   4.593  49.703  0.00  0.00    +0.000 C 
BRANCH  29  30
ATOM     30  C   UNL     1      26.492   5.704  48.725  0.00  0.00    +0.000 C 
BRANCH  30  32
ATOM     31  C   UNL     1      28.818   6.339  48.182  0.00  0.00    +0.000 C 
ATOM     32  N   UNL     1      27.674   6.510  49.081  0.00  0.00    +0.000 N 
ATOM     33  C   UNL     1      27.297   7.933  49.088  0.00  0.00    +0.000 C 
ATOM     34  H   UNL     1      27.972   6.182  50.000  0.00  0.00    +0.000 HD
ENDBRANCH  30  32
ENDBRANCH  29  30
ENDBRANCH  28  29
ENDBRANCH  19  28
ENDBRANCH   1  21
TORSDOF 6
ENDMDL
MODEL 2
REMARK VINA RESULT:    -9.000      1.571      2.361
REMARK INTER + INTRA:         -13.413
REMARK INTER:                 -11.967
REMARK INTRA:                  -1.446
REMARK UNBOUND:                -1.256
REMARK  Name = 
REMARK  9 active torsions:
REMARK  status: ('A' for Active; 'I' for Inactive)
REMARK    1  A    between atoms: C_1  and  N_2
REMARK    2  A    between atoms: N_2  and  C_3
REMARK    3  A    between atoms: N_2  and  C_4
REMARK    4  A    between atoms: C_4  and  C_5
REMARK    5  A    between atoms: C_5  and  C_6
REMARK    6  A    between atoms: C_6  and  N_7
REMARK    7  A    between atoms: C_9  and  C_10
REMARK    8  A    between atoms: C_11  and  C_12
REMARK    9  A    between atoms: N_14  and  C_15
REMARK                            x       y       z     vdW  Elec       q    Type
REMARK                         _______ _______ _______ _____ _____    ______ ____
ROOT
ATOM      1  C   UNL     1      22.803   0.965  52.923  0.00  0.00    +0.000 C 
ATOM      2  C   UNL     1      23.586   0.080  53.563  0.00  0.00    +0.000 C 
ATOM      3  C   UNL     1      22.747  -0.585  54.588  0.00  0.00    +0.000 C 
ATOM      4  O   UNL     1      23.084  -1.465  55.351  0.00  0.00    +0.000 OA
ATOM      5  N   UNL     1      21.514  -0.039  54.510  0.00  0.00    +0.000 N 
ATOM      6  C   UNL     1      21.454   0.887  53.537  0.00  0.00    +0.000 C 
ATOM      7  O   UNL     1      20.469   1.536  53.228  0.00  0.00    +0.000 OA
ATOM      8  H   UNL     1      20.757  -0.286  55.090  0.00  0.00    +0.000 HD
ENDROOT
BRANCH   2   9
ATOM      9  C   UNL     1      24.945  -0.247  53.342  0.00  0.00    +0.000 A 
ATOM     10  C   UNL     1      25.374  -1.488  52.927  0.00  0.00    +0.000 A 
ATOM     11  N   UNL     1      26.742  -1.462  52.881  0.00  0.00    +0.000 N 
ATOM     12  C   UNL     1      27.573  -2.597  52.550  0.00  0.00    +0.000 C 
ATOM     13  C   UNL     1      27.212  -0.211  53.234  0.00  0.00    +0.000 A 
ATOM     14  C   UNL     1      28.523   0.279  53.339  0.00  0.00    +0.000 A 
ATOM     15  C   UNL     1      28.700   1.608  53.735  0.00  0.00    +0.000 A 
ATOM     16  C   UNL     1      27.605   2.422  54.008  0.00  0.00    +0.000 A 
ATOM     17  C   UNL     1      26.300   1.923  53.903  0.00  0.00    +0.000 A 
ATOM     18  C   UNL     1      26.092   0.580  53.518  0.00  0.00    +0.000 A 
ENDBRANCH   2   9
BRANCH   1  21
ATOM     19  N   UNL     1      23.948   3.617  50.809  0.00  0.00    +0.000 N 
ATOM     20  C   UNL     1      23.946   2.941  52.001  0.00  0.00    +0.000 A 
ATOM     21  C   UNL     1      23.121   1.848  51.867  0.00  0.00    +0.000 A 
ATOM     22  C   UNL     1      22.669   1.800  50.516  0.00  0.00    +0.000 A 
ATOM     23  C   UNL     1      21.841   0.923  49.781  0.00  0.00    +0.000 A 
ATOM     24  C   UNL     1      21.598   1.173  48.425  0.00  0.00    +0.000 A 
ATOM     25  C   UNL     1      22.174   2.269  47.793  0.00  0.00    +0.000 A 
ATOM     26  C   UNL     1      22.997   3.153  48.497  0.00  0.00    +0.000 A 
ATOM     27  C   UNL     1      23.224   2.910  49.864  0.00  0.00    +0.000 A 
BRANCH  19  28
ATOM     28  C   UNL     1      24.673   4.856  50.575  0.00  0.00    +0.000 C 
BRANCH  28  29
ATOM     29  C   UNL     1      24.139   6.090  51.313  0.00  0.00    +0.000 C 
BRANCH  29  30
ATOM     30  C   UNL     1      23.183   7.027  50.555  0.00  0.00    +0.000 C 
BRANCH  30  32
ATOM     31  C   UNL     1      20.934   8.008  50.261  0.00  0.00    +0.000 C 
ATOM     32  N   UNL     1      21.795   7.117  51.042  0.00  0.00    +0.000 N 
ATOM     33  C   UNL     1      21.197   5.771  51.035  0.00  0.00    +0.000 C 
ATOM     34  H   UNL     1      21.850   7.513  51.980  0.00  0.00    +0.000 HD
ENDBRANCH  30  32
ENDBRANCH  29  30
ENDBRANCH  28  29
ENDBRANCH  19  28
ENDBRANCH   1  21
TORSDOF 6
ENDMDL
MODEL 3
REMARK VINA RESULT:    -8.877      2.531      6.825
REMARK INTER + INTRA:         -13.247
REMARK INTER:                 -11.627
REMARK INTRA:                  -1.620
REMARK UNBOUND:                -1.256
REMARK  Name = 
REMARK  9 active torsions:
REMARK  status: ('A' for Active; 'I' for Inactive)
REMARK    1  A    between atoms: C_1  and  N_2
REMARK    2  A    between atoms: N_2  and  C_3
REMARK    3  A    between atoms: N_2  and  C_4
REMARK    4  A    between atoms: C_4  and  C_5
REMARK    5  A    between atoms: C_5  and  C_6
REMARK    6  A    between atoms: C_6  and  N_7
REMARK    7  A    between atoms: C_9  and  C_10
REMARK    8  A    between atoms: C_11  and  C_12
REMARK    9  A    between atoms: N_14  and  C_15
REMARK                            x       y       z     vdW  Elec       q    Type
REMARK                         _______ _______ _______ _____ _____    ______ ____
ROOT
ATOM      1  C   UNL     1      23.330   1.415  52.279  0.00  0.00    +0.000 C 
ATOM      2  C   UNL     1      24.318   2.321  52.353  0.00  0.00    +0.000 C 
ATOM      3  C   UNL     1      25.388   1.735  53.194  0.00  0.00    +0.000 C 
ATOM      4  O   UNL     1      26.456   2.235  53.473  0.00  0.00    +0.000 OA
ATOM      5  N   UNL     1      24.961   0.516  53.591  0.00  0.00    +0.000 N 
ATOM      6  C   UNL     1      23.747   0.239  53.083  0.00  0.00    +0.000 C 
ATOM      7  O   UNL     1      23.117  -0.790  53.259  0.00  0.00    +0.000 OA
ATOM      8  H   UNL     1      25.471  -0.090  54.176  0.00  0.00    +0.000 HD
ENDROOT
BRANCH   2   9
ATOM      9  C   UNL     1      24.421   3.595  51.744  0.00  0.00    +0.000 A 
ATOM     10  C   UNL     1      23.590   4.653  52.042  0.00  0.00    +0.000 A 
ATOM     11  N   UNL     1      23.936   5.695  51.224  0.00  0.00    +0.000 N 
ATOM     12  C   UNL     1      23.254   6.969  51.188  0.00  0.00    +0.000 C 
ATOM     13  C   UNL     1      24.999   5.342  50.416  0.00  0.00    +0.000 A 
ATOM     14  C   UNL     1      25.680   6.069  49.426  0.00  0.00    +0.000 A 
ATOM     15  C   UNL     1      26.729   5.440  48.751  0.00  0.00    +0.000 A 
ATOM     16  C   UNL     1      27.093   4.133  49.059  0.00  0.00    +0.000 A 
ATOM     17  C   UNL     1      26.407   3.414  50.046  0.00  0.00    +0.000 A 
ATOM     18  C   UNL     1      25.333   4.020  50.735  0.00  0.00    +0.000 A 
ENDBRANCH   2   9
BRANCH   1  21
ATOM     19  N   UNL     1      19.910   1.312  51.227  0.00  0.00    +0.000 N 
ATOM     20  C   UNL     1      20.874   1.253  52.199  0.00  0.00    +0.000 A 
ATOM     21  C   UNL     1      22.092   1.486  51.601  0.00  0.00    +0.000 A 
ATOM     22  C   UNL     1      21.858   1.788  50.228  0.00  0.00    +0.000 A 
ATOM     23  C   UNL     1      22.687   2.128  49.136  0.00  0.00    +0.000 A 
ATOM     24  C   UNL     1      22.115   2.374  47.882  0.00  0.00    +0.000 A 
ATOM     25  C   UNL     1      20.738   2.298  47.705  0.00  0.00    +0.000 A 
ATOM     26  C   UNL     1      19.896   1.962  48.769  0.00  0.00    +0.000 A 
ATOM     27  C   UNL     1      20.475   1.697  50.023  0.00  0.00    +0.000 A 
BRANCH  19  28
ATOM     28  C   UNL     1      18.495   1.074  51.466  0.00  0.00    +0.000 C 
BRANCH  28  29
ATOM     29  C   UNL     1      18.087  -0.394  51.648  0.00  0.00    +0.000 C 
BRANCH  29  30
ATOM     30  C   UNL     1      17.249  -0.763  52.884  0.00  0.00    +0.000 C 
BRANCH  30  32
ATOM     31  C   UNL     1      17.451  -3.115  53.612  0.00  0.00    +0.000 C 
ATOM     32  N   UNL     1      17.834  -1.720  53.839  0.00  0.00    +0.000 N 
ATOM     33  C   UNL     1      19.302  -1.626  53.771  0.00  0.00    +0.000 C 
ATOM     34  H   UNL     1      17.470  -1.462  54.756  0.00  0.00    +0.000 HD
ENDBRANCH  30  32
ENDBRANCH  29  30
ENDBRANCH  28  29
ENDBRANCH  19  28
ENDBRANCH   1  21
TORSDOF 6
ENDMDL
MODEL 4
REMARK VINA RESULT:    -8.585      2.055      5.560
REMARK INTER + INTRA:         -12.852
REMARK INTER:                 -11.737
REMARK INTRA:                  -1.115
REMARK UNBOUND:                -1.256
REMARK  Name = 
REMARK  9 active torsions:
REMARK  status: ('A' for Active; 'I' for Inactive)
REMARK    1  A    between atoms: C_1  and  N_2
REMARK    2  A    between atoms: N_2  and  C_3
REMARK    3  A    between atoms: N_2  and  C_4
REMARK    4  A    between atoms: C_4  and  C_5
REMARK    5  A    between atoms: C_5  and  C_6
REMARK    6  A    between atoms: C_6  and  N_7
REMARK    7  A    between atoms: C_9  and  C_10
REMARK    8  A    between atoms: C_11  and  C_12
REMARK    9  A    between atoms: N_14  and  C_15
REMARK                            x       y       z     vdW  Elec       q    Type
REMARK                         _______ _______ _______ _____ _____    ______ ____
ROOT
ATOM      1  C   UNL     1      21.950  -0.091  53.627  0.00  0.00    +0.000 C 
ATOM      2  C   UNL     1      20.709  -0.214  53.128  0.00  0.00    +0.000 C 
ATOM      3  C   UNL     1      20.057  -1.336  53.843  0.00  0.00    +0.000 C 
ATOM      4  O   UNL     1      18.923  -1.738  53.696  0.00  0.00    +0.000 OA
ATOM      5  N   UNL     1      20.962  -1.831  54.717  0.00  0.00    +0.000 N 
ATOM      6  C   UNL     1      22.115  -1.142  54.662  0.00  0.00    +0.000 C 
ATOM      7  O   UNL     1      23.105  -1.354  55.342  0.00  0.00    +0.000 OA
ATOM      8  H   UNL     1      20.798  -2.597  55.314  0.00  0.00    +0.000 HD
ENDROOT
BRANCH   2   9
ATOM      9  C   UNL     1      20.054   0.560  52.139  0.00  0.00    +0.000 A 
ATOM     10  C   UNL     1      18.782   1.065  52.284  0.00  0.00    +0.000 A 
ATOM     11  N   UNL     1      18.451   1.700  51.117  0.00  0.00    +0.000 N 
ATOM     12  C   UNL     1      17.167   2.309  50.851  0.00  0.00    +0.000 C 
ATOM     13  C   UNL     1      19.501   1.640  50.221  0.00  0.00    +0.000 A 
ATOM     14  C   UNL     1      19.619   2.135  48.913  0.00  0.00    +0.000 A 
ATOM     15  C   UNL     1      20.819   1.912  48.230  0.00  0.00    +0.000 A 
ATOM     16  C   UNL     1      21.867   1.227  48.837  0.00  0.00    +0.000 A 
ATOM     17  C   UNL     1      21.740   0.736  50.142  0.00  0.00    +0.000 A 
ATOM     18  C   UNL     1      20.534   0.934  50.850  0.00  0.00    +0.000 A 
ENDBRANCH   2   9
BRANCH   1  21
ATOM     19  N   UNL     1      23.960   2.743  52.766  0.00  0.00    +0.000 N 
ATOM     20  C   UNL     1      22.793   2.186  53.219  0.00  0.00    +0.000 A 
ATOM     21  C   UNL     1      22.972   0.823  53.285  0.00  0.00    +0.000 A 
ATOM     22  C   UNL     1      24.326   0.540  52.945  0.00  0.00    +0.000 A 
ATOM     23  C   UNL     1      25.098  -0.641  52.859  0.00  0.00    +0.000 A 
ATOM     24  C   UNL     1      26.446  -0.563  52.489  0.00  0.00    +0.000 A 
ATOM     25  C   UNL     1      27.034   0.667  52.216  0.00  0.00    +0.000 A 
ATOM     26  C   UNL     1      26.293   1.850  52.293  0.00  0.00    +0.000 A 
ATOM     27  C   UNL     1      24.934   1.767  52.648  0.00  0.00    +0.000 A 
BRANCH  19  28
ATOM     28  C   UNL     1      24.144   4.165  52.523  0.00  0.00    +0.000 C 
BRANCH  28  29
ATOM     29  C   UNL     1      23.323   4.757  51.371  0.00  0.00    +0.000 C 
BRANCH  29  30
ATOM     30  C   UNL     1      24.084   5.357  50.176  0.00  0.00    +0.000 C 
BRANCH  30  32
ATOM     31  C   UNL     1      26.310   4.512  49.513  0.00  0.00    +0.000 C 
ATOM     32  N   UNL     1      25.547   5.485  50.299  0.00  0.00    +0.000 N 
ATOM     33  C   UNL     1      25.946   6.838  49.875  0.00  0.00    +0.000 C 
ATOM     34  H   UNL     1      25.765   5.305  51.279  0.00  0.00    +0.000 HD
ENDBRANCH  30  32
ENDBRANCH  29  30
ENDBRANCH  28  29
ENDBRANCH  19  28
ENDBRANCH   1  21
TORSDOF 6
ENDMDL
MODEL 5
REMARK VINA RESULT:    -8.550      3.026      6.773
REMARK INTER + INTRA:         -12.806
REMARK INTER:                 -11.313
REMARK INTRA:                  -1.492
REMARK UNBOUND:                -1.256
REMARK  Name = 
REMARK  9 active torsions:
REMARK  status: ('A' for Active; 'I' for Inactive)
REMARK    1  A    between atoms: C_1  and  N_2
REMARK    2  A    between atoms: N_2  and  C_3
REMARK    3  A    between atoms: N_2  and  C_4
REMARK    4  A    between atoms: C_4  and  C_5
REMARK    5  A    between atoms: C_5  and  C_6
REMARK    6  A    between atoms: C_6  and  N_7
REMARK    7  A    between atoms: C_9  and  C_10
REMARK    8  A    between atoms: C_11  and  C_12
REMARK    9  A    between atoms: N_14  and  C_15
REMARK                            x       y       z     vdW  Elec       q    Type
REMARK                         _______ _______ _______ _____ _____    ______ ____
ROOT
ATOM      1  C   UNL     1      20.485   0.175  52.176  0.00  0.00    +0.000 C 
ATOM      2  C   UNL     1      19.804   0.596  51.098  0.00  0.00    +0.000 C 
ATOM      3  C   UNL     1      18.433   0.043  51.202  0.00  0.00    +0.000 C 
ATOM      4  O   UNL     1      17.512   0.222  50.435  0.00  0.00    +0.000 OA
ATOM      5  N   UNL     1      18.386  -0.696  52.333  0.00  0.00    +0.000 N 
ATOM      6  C   UNL     1      19.563  -0.665  52.981  0.00  0.00    +0.000 C 
ATOM      7  O   UNL     1      19.813  -1.228  54.034  0.00  0.00    +0.000 OA
ATOM      8  H   UNL     1      17.594  -1.193  52.640  0.00  0.00    +0.000 HD
ENDROOT
BRANCH   2   9
ATOM      9  C   UNL     1      20.222   1.439  50.040  0.00  0.00    +0.000 A 
ATOM     10  C   UNL     1      21.188   1.092  49.123  0.00  0.00    +0.000 A 
ATOM     11  N   UNL     1      21.379   2.165  48.294  0.00  0.00    +0.000 N 
ATOM     12  C   UNL     1      22.360   2.217  47.234  0.00  0.00    +0.000 C 
ATOM     13  C   UNL     1      20.529   3.198  48.639  0.00  0.00    +0.000 A 
ATOM     14  C   UNL     1      20.373   4.480  48.088  0.00  0.00    +0.000 A 
ATOM     15  C   UNL     1      19.425   5.333  48.661  0.00  0.00    +0.000 A 
ATOM     16  C   UNL     1      18.652   4.916  49.740  0.00  0.00    +0.000 A 
ATOM     17  C   UNL     1      18.815   3.636  50.285  0.00  0.00    +0.000 A 
ATOM     18  C   UNL     1      19.776   2.758  49.735  0.00  0.00    +0.000 A 
ENDBRANCH   2   9
BRANCH   1  21
ATOM     19  N   UNL     1      23.879   0.050  53.309  0.00  0.00    +0.000 N 
ATOM     20  C   UNL     1      22.712  -0.559  52.926  0.00  0.00    +0.000 A 
ATOM     21  C   UNL     1      21.826   0.423  52.548  0.00  0.00    +0.000 A 
ATOM     22  C   UNL     1      22.501   1.675  52.615  0.00  0.00    +0.000 A 
ATOM     23  C   UNL     1      22.137   3.012  52.335  0.00  0.00    +0.000 A 
ATOM     24  C   UNL     1      23.074   4.037  52.509  0.00  0.00    +0.000 A 
ATOM     25  C   UNL     1      24.363   3.750  52.944  0.00  0.00    +0.000 A 
ATOM     26  C   UNL     1      24.749   2.437  53.230  0.00  0.00    +0.000 A 
ATOM     27  C   UNL     1      23.800   1.412  53.072  0.00  0.00    +0.000 A 
BRANCH  19  28
ATOM     28  C   UNL     1      25.042  -0.660  53.816  0.00  0.00    +0.000 C 
BRANCH  28  29
ATOM     29  C   UNL     1      26.089  -1.058  52.768  0.00  0.00    +0.000 C 
BRANCH  29  30
ATOM     30  C   UNL     1      27.483  -0.413  52.858  0.00  0.00    +0.000 C 
BRANCH  30  32
ATOM     31  C   UNL     1      29.657  -1.363  53.548  0.00  0.00    +0.000 C 
ATOM     32  N   UNL     1      28.355  -0.836  53.967  0.00  0.00    +0.000 N 
ATOM     33  C   UNL     1      28.586   0.312  54.859  0.00  0.00    +0.000 C 
ATOM     34  H   UNL     1      27.867  -1.600  54.435  0.00  0.00    +0.000 HD
ENDBRANCH  30  32
ENDBRANCH  29  30
ENDBRANCH  28  29
ENDBRANCH  19  28
ENDBRANCH   1  21
TORSDOF 6
ENDMDL
MODEL 6
REMARK VINA RESULT:    -8.498      2.500      5.631
REMARK INTER + INTRA:         -12.735
REMARK INTER:                 -11.369
REMARK INTRA:                  -1.366
REMARK UNBOUND:                -1.256
REMARK  Name = 
REMARK  9 active torsions:
REMARK  status: ('A' for Active; 'I' for Inactive)
REMARK    1  A    between atoms: C_1  and  N_2
REMARK    2  A    between atoms: N_2  and  C_3
REMARK    3  A    between atoms: N_2  and  C_4
REMARK    4  A    between atoms: C_4  and  C_5
REMARK    5  A    between atoms: C_5  and  C_6
REMARK    6  A    between atoms: C_6  and  N_7
REMARK    7  A    between atoms: C_9  and  C_10
REMARK    8  A    between atoms: C_11  and  C_12
REMARK    9  A    between atoms: N_14  and  C_15
REMARK                            x       y       z     vdW  Elec       q    Type
REMARK                         _______ _______ _______ _____ _____    ______ ____
ROOT
ATOM      1  C   UNL     1      23.525   1.167  52.215  0.00  0.00    +0.000 C 
ATOM      2  C   UNL     1      24.413   2.165  52.361  0.00  0.00    +0.000 C 
ATOM      3  C   UNL     1      25.446   1.696  53.314  0.00  0.00    +0.000 C 
ATOM      4  O   UNL     1      26.431   2.300  53.681  0.00  0.00    +0.000 OA
ATOM      5  N   UNL     1      25.099   0.448  53.697  0.00  0.00    +0.000 N 
ATOM      6  C   UNL     1      23.971   0.049  53.083  0.00  0.00    +0.000 C 
ATOM      7  O   UNL     1      23.427  -1.033  53.223  0.00  0.00    +0.000 OA
ATOM      8  H   UNL     1      25.604  -0.098  54.342  0.00  0.00    +0.000 HD
ENDROOT
BRANCH   2   9
ATOM      9  C   UNL     1      24.454   3.434  51.735  0.00  0.00    +0.000 A 
ATOM     10  C   UNL     1      23.562   4.448  52.005  0.00  0.00    +0.000 A 
ATOM     11  N   UNL     1      23.862   5.496  51.176  0.00  0.00    +0.000 N 
ATOM     12  C   UNL     1      23.111   6.729  51.111  0.00  0.00    +0.000 C 
ATOM     13  C   UNL     1      24.955   5.191  50.388  0.00  0.00    +0.000 A 
ATOM     14  C   UNL     1      25.609   5.941  49.398  0.00  0.00    +0.000 A 
ATOM     15  C   UNL     1      26.702   5.361  48.747  0.00  0.00    +0.000 A 
ATOM     16  C   UNL     1      27.133   4.081  49.080  0.00  0.00    +0.000 A 
ATOM     17  C   UNL     1      26.473   3.339  50.069  0.00  0.00    +0.000 A 
ATOM     18  C   UNL     1      25.357   3.894  50.733  0.00  0.00    +0.000 A 
ENDBRANCH   2   9
BRANCH   1  21
ATOM     19  N   UNL     1      20.997   1.422  49.694  0.00  0.00    +0.000 N 
ATOM     20  C   UNL     1      22.297   1.532  50.113  0.00  0.00    +0.000 A 
ATOM     21  C   UNL     1      22.358   1.110  51.422  0.00  0.00    +0.000 A 
ATOM     22  C   UNL     1      21.066   0.639  51.793  0.00  0.00    +0.000 A 
ATOM     23  C   UNL     1      20.518   0.075  52.967  0.00  0.00    +0.000 A 
ATOM     24  C   UNL     1      19.168  -0.295  52.995  0.00  0.00    +0.000 A 
ATOM     25  C   UNL     1      18.365  -0.123  51.873  0.00  0.00    +0.000 A 
ATOM     26  C   UNL     1      18.881   0.433  50.699  0.00  0.00    +0.000 A 
ATOM     27  C   UNL     1      20.232   0.821  50.680  0.00  0.00    +0.000 A 
BRANCH  19  28
ATOM     28  C   UNL     1      20.528   1.815  48.375  0.00  0.00    +0.000 C 
BRANCH  28  29
ATOM     29  C   UNL     1      19.819   3.173  48.297  0.00  0.00    +0.000 C 
BRANCH  29  30
ATOM     30  C   UNL     1      20.571   4.411  48.815  0.00  0.00    +0.000 C 
BRANCH  30  32
ATOM     31  C   UNL     1      19.447   6.522  49.435  0.00  0.00    +0.000 C 
ATOM     32  N   UNL     1      19.921   5.207  49.871  0.00  0.00    +0.000 N 
ATOM     33  C   UNL     1      18.773   4.452  50.400  0.00  0.00    +0.000 C 
ATOM     34  H   UNL     1      20.636   5.373  50.579  0.00  0.00    +0.000 HD
ENDBRANCH  30  32
ENDBRANCH  29  30
ENDBRANCH  28  29
ENDBRANCH  19  28
ENDBRANCH   1  21
TORSDOF 6
ENDMDL
MODEL 7
REMARK VINA RESULT:    -8.363      3.589      6.396
REMARK INTER + INTRA:         -12.552
REMARK INTER:                 -11.539
REMARK INTRA:                  -1.013
REMARK UNBOUND:                -1.256
REMARK  Name = 
REMARK  9 active torsions:
REMARK  status: ('A' for Active; 'I' for Inactive)
REMARK    1  A    between atoms: C_1  and  N_2
REMARK    2  A    between atoms: N_2  and  C_3
REMARK    3  A    between atoms: N_2  and  C_4
REMARK    4  A    between atoms: C_4  and  C_5
REMARK    5  A    between atoms: C_5  and  C_6
REMARK    6  A    between atoms: C_6  and  N_7
REMARK    7  A    between atoms: C_9  and  C_10
REMARK    8  A    between atoms: C_11  and  C_12
REMARK    9  A    between atoms: N_14  and  C_15
REMARK                            x       y       z     vdW  Elec       q    Type
REMARK                         _______ _______ _______ _____ _____    ______ ____
ROOT
ATOM      1  C   UNL     1      20.383   0.245  52.855  0.00  0.00    +0.000 C 
ATOM      2  C   UNL     1      21.600   0.263  53.423  0.00  0.00    +0.000 C 
ATOM      3  C   UNL     1      21.635  -0.836  54.417  0.00  0.00    +0.000 C 
ATOM      4  O   UNL     1      22.571  -1.161  55.115  0.00  0.00    +0.000 OA
ATOM      5  N   UNL     1      20.423  -1.433  54.395  0.00  0.00    +0.000 N 
ATOM      6  C   UNL     1      19.617  -0.858  53.486  0.00  0.00    +0.000 C 
ATOM      7  O   UNL     1      18.471  -1.192  53.236  0.00  0.00    +0.000 OA
ATOM      8  H   UNL     1      20.163  -2.188  54.971  0.00  0.00    +0.000 HD
ENDROOT
BRANCH   2   9
ATOM      9  C   UNL     1      22.707   1.104  53.158  0.00  0.00    +0.000 A 
ATOM     10  C   UNL     1      22.620   2.475  53.066  0.00  0.00    +0.000 A 
ATOM     11  N   UNL     1      23.862   2.950  52.738  0.00  0.00    +0.000 N 
ATOM     12  C   UNL     1      24.168   4.340  52.488  0.00  0.00    +0.000 C 
ATOM     13  C   UNL     1      24.766   1.910  52.643  0.00  0.00    +0.000 A 
ATOM     14  C   UNL     1      26.133   1.910  52.326  0.00  0.00    +0.000 A 
ATOM     15  C   UNL     1      26.802   0.682  52.294  0.00  0.00    +0.000 A 
ATOM     16  C   UNL     1      26.131  -0.503  52.578  0.00  0.00    +0.000 A 
ATOM     17  C   UNL     1      24.766  -0.493  52.892  0.00  0.00    +0.000 A 
ATOM     18  C   UNL     1      24.061   0.730  52.917  0.00  0.00    +0.000 A 
ENDBRANCH   2   9
BRANCH   1  21
ATOM     19  N   UNL     1      18.423   2.433  50.809  0.00  0.00    +0.000 N 
ATOM     20  C   UNL     1      18.694   1.822  52.005  0.00  0.00    +0.000 A 
ATOM     21  C   UNL     1      19.845   1.084  51.853  0.00  0.00    +0.000 A 
ATOM     22  C   UNL     1      20.350   1.321  50.542  0.00  0.00    +0.000 A 
ATOM     23  C   UNL     1      21.483   0.879  49.824  0.00  0.00    +0.000 A 
ATOM     24  C   UNL     1      21.690   1.322  48.512  0.00  0.00    +0.000 A 
ATOM     25  C   UNL     1      20.796   2.203  47.915  0.00  0.00    +0.000 A 
ATOM     26  C   UNL     1      19.666   2.656  48.602  0.00  0.00    +0.000 A 
ATOM     27  C   UNL     1      19.451   2.194  49.913  0.00  0.00    +0.000 A 
BRANCH  19  28
ATOM     28  C   UNL     1      17.257   3.267  50.564  0.00  0.00    +0.000 C 
BRANCH  28  29
ATOM     29  C   UNL     1      16.010   2.929  51.392  0.00  0.00    +0.000 C 
BRANCH  29  30
ATOM     30  C   UNL     1      15.630   3.877  52.543  0.00  0.00    +0.000 C 
BRANCH  30  32
ATOM     31  C   UNL     1      13.365   4.350  53.410  0.00  0.00    +0.000 C 
ATOM     32  N   UNL     1      14.528   3.460  53.428  0.00  0.00    +0.000 N 
ATOM     33  C   UNL     1      14.084   2.111  53.036  0.00  0.00    +0.000 C 
ATOM     34  H   UNL     1      14.902   3.486  54.376  0.00  0.00    +0.000 HD
ENDBRANCH  30  32
ENDBRANCH  29  30
ENDBRANCH  28  29
ENDBRANCH  19  28
ENDBRANCH   1  21
TORSDOF 6
ENDMDL
MODEL 8
REMARK VINA RESULT:    -8.299      2.015      3.842
REMARK INTER + INTRA:         -12.466
REMARK INTER:                 -10.366
REMARK INTRA:                  -2.100
REMARK UNBOUND:                -1.256
REMARK  Name = 
REMARK  9 active torsions:
REMARK  status: ('A' for Active; 'I' for Inactive)
REMARK    1  A    between atoms: C_1  and  N_2
REMARK    2  A    between atoms: N_2  and  C_3
REMARK    3  A    between atoms: N_2  and  C_4
REMARK    4  A    between atoms: C_4  and  C_5
REMARK    5  A    between atoms: C_5  and  C_6
REMARK    6  A    between atoms: C_6  and  N_7
REMARK    7  A    between atoms: C_9  and  C_10
REMARK    8  A    between atoms: C_11  and  C_12
REMARK    9  A    between atoms: N_14  and  C_15
REMARK                            x       y       z     vdW  Elec       q    Type
REMARK                         _______ _______ _______ _____ _____    ______ ____
ROOT
ATOM      1  C   UNL     1      22.482   0.783  53.025  0.00  0.00    +0.000 C 
ATOM      2  C   UNL     1      23.361  -0.014  53.655  0.00  0.00    +0.000 C 
ATOM      3  C   UNL     1      22.633  -0.683  54.758  0.00  0.00    +0.000 C 
ATOM      4  O   UNL     1      23.075  -1.500  55.538  0.00  0.00    +0.000 OA
ATOM      5  N   UNL     1      21.361  -0.226  54.732  0.00  0.00    +0.000 N 
ATOM      6  C   UNL     1      21.180   0.645  53.724  0.00  0.00    +0.000 C 
ATOM      7  O   UNL     1      20.135   1.209  53.448  0.00  0.00    +0.000 OA
ATOM      8  H   UNL     1      20.659  -0.495  55.369  0.00  0.00    +0.000 HD
ENDROOT
BRANCH   2   9
ATOM      9  C   UNL     1      24.725  -0.260  53.365  0.00  0.00    +0.000 A 
ATOM     10  C   UNL     1      25.211  -1.483  52.961  0.00  0.00    +0.000 A 
ATOM     11  N   UNL     1      26.570  -1.369  52.836  0.00  0.00    +0.000 N 
ATOM     12  C   UNL     1      27.455  -2.458  52.490  0.00  0.00    +0.000 C 
ATOM     13  C   UNL     1      26.975  -0.081  53.126  0.00  0.00    +0.000 A 
ATOM     14  C   UNL     1      28.254   0.497  53.141  0.00  0.00    +0.000 A 
ATOM     15  C   UNL     1      28.363   1.847  53.489  0.00  0.00    +0.000 A 
ATOM     16  C   UNL     1      27.233   2.596  53.802  0.00  0.00    +0.000 A 
ATOM     17  C   UNL     1      25.961   2.011  53.786  0.00  0.00    +0.000 A 
ATOM     18  C   UNL     1      25.822   0.646  53.452  0.00  0.00    +0.000 A 
ENDBRANCH   2   9
BRANCH   1  21
ATOM     19  N   UNL     1      22.843   2.287  49.797  0.00  0.00    +0.000 N 
ATOM     20  C   UNL     1      22.465   1.248  50.608  0.00  0.00    +0.000 A 
ATOM     21  C   UNL     1      22.674   1.632  51.913  0.00  0.00    +0.000 A 
ATOM     22  C   UNL     1      23.111   2.988  51.908  0.00  0.00    +0.000 A 
ATOM     23  C   UNL     1      23.455   3.920  52.913  0.00  0.00    +0.000 A 
ATOM     24  C   UNL     1      23.851   5.214  52.554  0.00  0.00    +0.000 A 
ATOM     25  C   UNL     1      23.897   5.593  51.217  0.00  0.00    +0.000 A 
ATOM     26  C   UNL     1      23.564   4.691  50.203  0.00  0.00    +0.000 A 
ATOM     27  C   UNL     1      23.184   3.386  50.566  0.00  0.00    +0.000 A 
BRANCH  19  28
ATOM     28  C   UNL     1      22.808   2.242  48.344  0.00  0.00    +0.000 C 
BRANCH  28  29
ATOM     29  C   UNL     1      21.422   2.394  47.705  0.00  0.00    +0.000 C 
BRANCH  29  30
ATOM     30  C   UNL     1      20.609   3.657  48.038  0.00  0.00    +0.000 C 
BRANCH  30  32
ATOM     31  C   UNL     1      18.649   4.600  49.212  0.00  0.00    +0.000 C 
ATOM     32  N   UNL     1      19.722   3.602  49.214  0.00  0.00    +0.000 N 
ATOM     33  C   UNL     1      19.111   2.265  49.290  0.00  0.00    +0.000 C 
ATOM     34  H   UNL     1      20.310   3.808  50.021  0.00  0.00    +0.000 HD
ENDBRANCH  30  32
ENDBRANCH  29  30
ENDBRANCH  28  29
ENDBRANCH  19  28
ENDBRANCH   1  21
TORSDOF 6
ENDMDL
MODEL 9
REMARK VINA RESULT:    -8.245      2.904      6.204
REMARK INTER + INTRA:         -12.393
REMARK INTER:                 -10.832
REMARK INTRA:                  -1.560
REMARK UNBOUND:                -1.256
REMARK  Name = 
REMARK  9 active torsions:
REMARK  status: ('A' for Active; 'I' for Inactive)
REMARK    1  A    between atoms: C_1  and  N_2
REMARK    2  A    between atoms: N_2  and  C_3
REMARK    3  A    between atoms: N_2  and  C_4
REMARK    4  A    between atoms: C_4  and  C_5
REMARK    5  A    between atoms: C_5  and  C_6
REMARK    6  A    between atoms: C_6  and  N_7
REMARK    7  A    between atoms: C_9  and  C_10
REMARK    8  A    between atoms: C_11  and  C_12
REMARK    9  A    between atoms: N_14  and  C_15
REMARK                            x       y       z     vdW  Elec       q    Type
REMARK                         _______ _______ _______ _____ _____    ______ ____
ROOT
ATOM      1  C   UNL     1      23.420   1.320  52.243  0.00  0.00    +0.000 C 
ATOM      2  C   UNL     1      24.365   2.267  52.366  0.00  0.00    +0.000 C 
ATOM      3  C   UNL     1      25.411   1.728  53.267  0.00  0.00    +0.000 C 
ATOM      4  O   UNL     1      26.441   2.273  53.601  0.00  0.00    +0.000 OA
ATOM      5  N   UNL     1      25.014   0.493  53.645  0.00  0.00    +0.000 N 
ATOM      6  C   UNL     1      23.842   0.164  53.074  0.00  0.00    +0.000 C 
ATOM      7  O   UNL     1      23.247  -0.890  53.220  0.00  0.00    +0.000 OA
ATOM      8  H   UNL     1      25.516  -0.090  54.260  0.00  0.00    +0.000 HD
ENDROOT
BRANCH   2   9
ATOM      9  C   UNL     1      24.448   3.543  51.759  0.00  0.00    +0.000 A 
ATOM     10  C   UNL     1      23.598   4.586  52.054  0.00  0.00    +0.000 A 
ATOM     11  N   UNL     1      23.928   5.635  51.237  0.00  0.00    +0.000 N 
ATOM     12  C   UNL     1      23.223   6.896  51.200  0.00  0.00    +0.000 C 
ATOM     13  C   UNL     1      25.000   5.301  50.433  0.00  0.00    +0.000 A 
ATOM     14  C   UNL     1      25.670   6.040  49.446  0.00  0.00    +0.000 A 
ATOM     15  C   UNL     1      26.733   5.429  48.774  0.00  0.00    +0.000 A 
ATOM     16  C   UNL     1      27.119   4.129  49.083  0.00  0.00    +0.000 A 
ATOM     17  C   UNL     1      26.443   3.398  50.068  0.00  0.00    +0.000 A 
ATOM     18  C   UNL     1      25.356   3.984  50.753  0.00  0.00    +0.000 A 
ENDBRANCH   2   9
BRANCH   1  21
ATOM     19  N   UNL     1      20.089   0.992  50.975  0.00  0.00    +0.000 N 
ATOM     20  C   UNL     1      21.002   0.931  51.995  0.00  0.00    +0.000 A 
ATOM     21  C   UNL     1      22.220   1.338  51.499  0.00  0.00    +0.000 A 
ATOM     22  C   UNL     1      22.029   1.749  50.148  0.00  0.00    +0.000 A 
ATOM     23  C   UNL     1      22.875   2.274  49.145  0.00  0.00    +0.000 A 
ATOM     24  C   UNL     1      22.348   2.586  47.887  0.00  0.00    +0.000 A 
ATOM     25  C   UNL     1      20.998   2.395  47.618  0.00  0.00    +0.000 A 
ATOM     26  C   UNL     1      20.139   1.877  48.592  0.00  0.00    +0.000 A 
ATOM     27  C   UNL     1      20.675   1.547  49.850  0.00  0.00    +0.000 A 
BRANCH  19  28
ATOM     28  C   UNL     1      18.695   0.597  51.103  0.00  0.00    +0.000 C 
BRANCH  28  29
ATOM     29  C   UNL     1      17.727   1.702  51.542  0.00  0.00    +0.000 C 
BRANCH  29  30
ATOM     30  C   UNL     1      16.855   2.368  50.463  0.00  0.00    +0.000 C 
BRANCH  30  32
ATOM     31  C   UNL     1      16.279   4.311  51.878  0.00  0.00    +0.000 C 
ATOM     32  N   UNL     1      16.666   3.827  50.550  0.00  0.00    +0.000 N 
ATOM     33  C   UNL     1      17.918   4.496  50.161  0.00  0.00    +0.000 C 
ATOM     34  H   UNL     1      15.894   4.050  49.922  0.00  0.00    +0.000 HD
ENDBRANCH  30  32
ENDBRANCH  29  30
ENDBRANCH  28  29
ENDBRANCH  19  28
ENDBRANCH   1  21
TORSDOF 6
ENDMDL
