MODEL 1
REMARK VINA RESULT:    -8.421      0.000      0.000
REMARK INTER + INTRA:         -12.207
REMARK INTER:                 -11.866
REMARK INTRA:                  -0.341
REMARK UNBOUND:                -0.341
REMARK  Name = 
REMARK  12 active torsions:
REMARK  status: ('A' for Active; 'I' for Inactive)
REMARK    1  A    between atoms: C_1  and  C_2
REMARK    2  A    between atoms: C_2  and  N_3
REMARK    3  A    between atoms: N_3  and  C_4
REMARK    4  A    between atoms: N_3  and  C_6
REMARK    5  A    between atoms: C_4  and  C_5
REMARK    6  A    between atoms: C_6  and  C_7
REMARK    7  A    between atoms: C_7  and  N_8
REMARK    8  A    between atoms: N_8  and  C_9
REMARK    9  A    between atoms: C_19  and  C_20
REMARK   10  A    between atoms: C_20  and  C_21
REMARK   11  A    between atoms: C_20  and  C_22
REMARK   12  A    between atoms: C_20  and  C_23
REMARK                            x       y       z     vdW  Elec       q    Type
REMARK                         _______ _______ _______ _____ _____    ______ ____
ROOT
ATOM      1  C   UNL     1      23.471  -0.504  53.650  0.00  0.00    +0.000 A 
ATOM      2  C   UNL     1      22.515  -0.963  54.580  0.00  0.00    +0.000 A 
ATOM      3  C   UNL     1      21.117  -0.799  54.401  0.00  0.00    +0.000 A 
ATOM      4  C   UNL     1      20.700  -0.277  53.181  0.00  0.00    +0.000 A 
ATOM      5  N   UNL     1      19.468  -0.084  52.597  0.00  0.00    +0.000 NA
ATOM      6  C   UNL     1      19.724   0.414  51.396  0.00  0.00    +0.000 A 
ATOM      7  N   UNL     1      21.070   0.485  51.172  0.00  0.00    +0.000 N 
ATOM      8  C   UNL     1      21.848   1.014  50.133  0.00  0.00    +0.000 A 
ATOM      9  C   UNL     1      21.546   0.980  48.795  0.00  0.00    +0.000 A 
ATOM     10  C   UNL     1      21.968   2.083  48.093  0.00  0.00    +0.000 A 
ATOM     11  C   UNL     1      22.056   3.267  48.826  0.00  0.00    +0.000 A 
ATOM     12  C   UNL     1      22.939   3.070  49.919  0.00  0.00    +0.000 A 
ATOM     13  C   UNL     1      22.879   1.847  50.565  0.00  0.00    +0.000 A 
ATOM     14  C   UNL     1      23.713   1.327  51.720  0.00  0.00    +0.000 A 
ATOM     15  O   UNL     1      24.860   1.688  51.882  0.00  0.00    +0.000 OA
ATOM     16  C   UNL     1      23.020   0.346  52.641  0.00  0.00    +0.000 A 
ATOM     17  C   UNL     1      21.667   0.208  52.356  0.00  0.00    +0.000 A 
ENDROOT
BRANCH  11  18
ATOM     18  C   UNL     1      20.577   3.894  49.126  0.00  0.00    +0.000 C 
ATOM     19  C   UNL     1      19.398   3.080  48.473  0.00  0.00    +0.000 C 
ATOM     20  C   UNL     1      20.252   4.047  50.633  0.00  0.00    +0.000 C 
ATOM     21  C   UNL     1      20.450   5.284  48.477  0.00  0.00    +0.000 C 
ENDBRANCH  11  18
BRANCH   1  22
ATOM     22  N   UNL     1      24.816  -0.904  53.713  0.00  0.00    +0.000 N 
ATOM     23  H   UNL     1      25.214  -1.434  52.984  0.00  0.00    +0.000 HD
BRANCH  22  24
ATOM     24  C   UNL     1      25.627  -0.522  54.889  0.00  0.00    +0.000 C 
BRANCH  24  25
ATOM     25  C   UNL     1      26.720   0.572  54.657  0.00  0.00    +0.000 C 
BRANCH  25  26
ATOM     26  N   UNL     1      28.127   0.121  54.557  0.00  0.00    +0.000 N 
ATOM     27  H   UNL     1      28.359  -0.355  55.429  0.00  0.00    +0.000 HD
BRANCH  26  29
ATOM     28  C   UNL     1      29.758  -1.361  53.387  0.00  0.00    +0.000 C 
ATOM     29  C   UNL     1      28.313  -0.881  53.497  0.00  0.00    +0.000 C 
ENDBRANCH  26  29
BRANCH  26  30
ATOM     30  C   UNL     1      29.059   1.265  54.450  0.00  0.00    +0.000 C 
ATOM     31  C   UNL     1      28.636   2.458  53.590  0.00  0.00    +0.000 C 
ENDBRANCH  26  30
ENDBRANCH  25  26
ENDBRANCH  24  25
ENDBRANCH  22  24
ENDBRANCH   1  22
TORSDOF 7
ENDMDL
MODEL 2
REMARK VINA RESULT:    -8.133      1.381      1.828
REMARK INTER + INTRA:         -11.803
REMARK INTER:                 -11.337
REMARK INTRA:                  -0.466
REMARK UNBOUND:                -0.341
REMARK  Name = 
REMARK  12 active torsions:
REMARK  status: ('A' for Active; 'I' for Inactive)
REMARK    1  A    between atoms: C_1  and  C_2
REMARK    2  A    between atoms: C_2  and  N_3
REMARK    3  A    between atoms: N_3  and  C_4
REMARK    4  A    between atoms: N_3  and  C_6
REMARK    5  A    between atoms: C_4  and  C_5
REMARK    6  A    between atoms: C_6  and  C_7
REMARK    7  A    between atoms: C_7  and  N_8
REMARK    8  A    between atoms: N_8  and  C_9
REMARK    9  A    between atoms: C_19  and  C_20
REMARK   10  A    between atoms: C_20  and  C_21
REMARK   11  A    between atoms: C_20  and  C_22
REMARK   12  A    between atoms: C_20  and  C_23
REMARK                            x       y       z     vdW  Elec       q    Type
REMARK                         _______ _______ _______ _____ _____    ______ ____
ROOT
ATOM      1  C   UNL     1      23.776  -0.155  53.708  0.00  0.00    +0.000 A 
ATOM      2  C   UNL     1      22.648  -0.970  53.934  0.00  0.00    +0.000 A 
ATOM      3  C   UNL     1      21.423  -0.809  53.238  0.00  0.00    +0.000 A 
ATOM      4  C   UNL     1      21.409   0.117  52.200  0.00  0.00    +0.000 A 
ATOM      5  N   UNL     1      20.482   0.465  51.243  0.00  0.00    +0.000 NA
ATOM      6  C   UNL     1      21.075   1.389  50.502  0.00  0.00    +0.000 A 
ATOM      7  N   UNL     1      22.362   1.596  50.912  0.00  0.00    +0.000 N 
ATOM      8  C   UNL     1      23.358   2.510  50.541  0.00  0.00    +0.000 A 
ATOM      9  C   UNL     1      23.603   2.972  49.272  0.00  0.00    +0.000 A 
ATOM     10  C   UNL     1      24.035   4.275  49.219  0.00  0.00    +0.000 A 
ATOM     11  C   UNL     1      23.601   5.097  50.260  0.00  0.00    +0.000 A 
ATOM     12  C   UNL     1      24.019   4.538  51.496  0.00  0.00    +0.000 A 
ATOM     13  C   UNL     1      23.959   3.160  51.617  0.00  0.00    +0.000 A 
ATOM     14  C   UNL     1      24.372   2.278  52.779  0.00  0.00    +0.000 A 
ATOM     15  O   UNL     1      25.275   2.598  53.525  0.00  0.00    +0.000 OA
ATOM     16  C   UNL     1      23.588   0.993  52.940  0.00  0.00    +0.000 A 
ATOM     17  C   UNL     1      22.503   0.917  52.076  0.00  0.00    +0.000 A 
ENDROOT
BRANCH  11  18
ATOM     18  C   UNL     1      22.028   5.502  50.084  0.00  0.00    +0.000 C 
ATOM     19  C   UNL     1      21.396   5.017  48.727  0.00  0.00    +0.000 C 
ATOM     20  C   UNL     1      21.114   4.990  51.226  0.00  0.00    +0.000 C 
ATOM     21  C   UNL     1      21.880   7.032  50.016  0.00  0.00    +0.000 C 
ENDBRANCH  11  18
BRANCH   1  22
ATOM     22  N   UNL     1      25.045  -0.493  54.207  0.00  0.00    +0.000 N 
ATOM     23  H   UNL     1      25.274  -0.318  55.149  0.00  0.00    +0.000 HD
BRANCH  22  24
ATOM     24  C   UNL     1      26.034  -1.114  53.299  0.00  0.00    +0.000 C 
BRANCH  24  25
ATOM     25  C   UNL     1      27.355  -0.312  53.054  0.00  0.00    +0.000 C 
BRANCH  25  26
ATOM     26  N   UNL     1      28.376  -0.335  54.126  0.00  0.00    +0.000 N 
ATOM     27  H   UNL     1      27.999  -0.887  54.897  0.00  0.00    +0.000 HD
BRANCH  26  29
ATOM     28  C   UNL     1      29.342  -2.461  53.246  0.00  0.00    +0.000 C 
ATOM     29  C   UNL     1      29.603  -1.029  53.706  0.00  0.00    +0.000 C 
ENDBRANCH  26  29
BRANCH  26  30
ATOM     30  C   UNL     1      28.627   1.018  54.669  0.00  0.00    +0.000 C 
ATOM     31  C   UNL     1      28.766   2.175  53.677  0.00  0.00    +0.000 C 
ENDBRANCH  26  30
ENDBRANCH  25  26
ENDBRANCH  24  25
ENDBRANCH  22  24
ENDBRANCH   1  22
TORSDOF 7
ENDMDL
MODEL 3
REMARK VINA RESULT:    -8.090      2.429      6.680
REMARK INTER + INTRA:         -11.741
REMARK INTER:                 -10.536
REMARK INTRA:                  -1.204
REMARK UNBOUND:                -0.341
REMARK  Name = 
REMARK  12 active torsions:
REMARK  status: ('A' for Active; 'I' for Inactive)
REMARK    1  A    between atoms: C_1  and  C_2
REMARK    2  A    between atoms: C_2  and  N_3
REMARK    3  A    between atoms: N_3  and  C_4
REMARK    4  A    between atoms: N_3  and  C_6
REMARK    5  A    between atoms: C_4  and  C_5
REMARK    6  A    between atoms: C_6  and  C_7
REMARK    7  A    between atoms: C_7  and  N_8
REMARK    8  A    between atoms: N_8  and  C_9
REMARK    9  A    between atoms: C_19  and  C_20
REMARK   10  A    between atoms: C_20  and  C_21
REMARK   11  A    between atoms: C_20  and  C_22
REMARK   12  A    between atoms: C_20  and  C_23
REMARK                            x       y       z     vdW  Elec       q    Type
REMARK                         _______ _______ _______ _____ _____    ______ ____
ROOT
ATOM      1  C   UNL     1      21.867   2.298  49.980  0.00  0.00    +0.000 A 
ATOM      2  C   UNL     1      20.788   1.404  50.132  0.00  0.00    +0.000 A 
ATOM      3  C   UNL     1      20.785   0.346  51.078  0.00  0.00    +0.000 A 
ATOM      4  C   UNL     1      21.852   0.299  51.969  0.00  0.00    +0.000 A 
ATOM      5  N   UNL     1      22.142  -0.473  53.071  0.00  0.00    +0.000 NA
ATOM      6  C   UNL     1      23.294  -0.007  53.531  0.00  0.00    +0.000 A 
ATOM      7  N   UNL     1      23.715   1.068  52.801  0.00  0.00    +0.000 N 
ATOM      8  C   UNL     1      24.884   1.842  52.809  0.00  0.00    +0.000 A 
ATOM      9  C   UNL     1      25.607   2.209  53.915  0.00  0.00    +0.000 A 
ATOM     10  C   UNL     1      26.963   2.284  53.705  0.00  0.00    +0.000 A 
ATOM     11  C   UNL     1      27.465   1.447  52.708  0.00  0.00    +0.000 A 
ATOM     12  C   UNL     1      26.807   1.738  51.485  0.00  0.00    +0.000 A 
ATOM     13  C   UNL     1      25.453   2.019  51.549  0.00  0.00    +0.000 A 
ATOM     14  C   UNL     1      24.498   2.407  50.436  0.00  0.00    +0.000 A 
ATOM     15  O   UNL     1      24.879   3.023  49.463  0.00  0.00    +0.000 OA
ATOM     16  C   UNL     1      23.060   1.973  50.625  0.00  0.00    +0.000 A 
ATOM     17  C   UNL     1      22.891   1.145  51.728  0.00  0.00    +0.000 A 
ENDROOT
BRANCH  11  18
ATOM     18  C   UNL     1      27.523  -0.108  53.207  0.00  0.00    +0.000 C 
ATOM     19  C   UNL     1      27.008  -0.322  54.679  0.00  0.00    +0.000 C 
ATOM     20  C   UNL     1      26.741  -1.091  52.299  0.00  0.00    +0.000 C 
ATOM     21  C   UNL     1      28.983  -0.590  53.270  0.00  0.00    +0.000 C 
ENDBRANCH  11  18
BRANCH   1  22
ATOM     22  N   UNL     1      21.747   3.483  49.235  0.00  0.00    +0.000 N 
ATOM     23  H   UNL     1      22.199   3.573  48.364  0.00  0.00    +0.000 HD
BRANCH  22  24
ATOM     24  C   UNL     1      20.934   4.594  49.775  0.00  0.00    +0.000 C 
BRANCH  24  25
ATOM     25  C   UNL     1      21.717   5.758  50.466  0.00  0.00    +0.000 C 
BRANCH  25  26
ATOM     26  N   UNL     1      23.196   5.725  50.391  0.00  0.00    +0.000 N 
ATOM     27  H   UNL     1      23.460   4.864  49.913  0.00  0.00    +0.000 HD
BRANCH  26  29
ATOM     28  C   UNL     1      23.827   8.138  50.324  0.00  0.00    +0.000 C 
ATOM     29  C   UNL     1      23.732   6.817  49.565  0.00  0.00    +0.000 C 
ENDBRANCH  26  29
BRANCH  26  30
ATOM     30  C   UNL     1      23.808   5.655  51.736  0.00  0.00    +0.000 C 
ATOM     31  C   UNL     1      23.059   4.885  52.826  0.00  0.00    +0.000 C 
ENDBRANCH  26  30
ENDBRANCH  25  26
ENDBRANCH  24  25
ENDBRANCH  22  24
ENDBRANCH   1  22
TORSDOF 7
ENDMDL
MODEL 4
REMARK VINA RESULT:    -7.792      2.363      3.580
REMARK INTER + INTRA:         -11.322
REMARK INTER:                 -10.500
REMARK INTRA:                  -0.822
REMARK UNBOUND:                -0.341
REMARK  Name = 
REMARK  12 active torsions:
REMARK  status: ('A' for Active; 'I' for Inactive)
REMARK    1  A    between atoms: C_1  and  C_2
REMARK    2  A    between atoms: C_2  and  N_3
REMARK    3  A    between atoms: N_3  and  C_4
REMARK    4  A    between atoms: N_3  and  C_6
REMARK    5  A    between atoms: C_4  and  C_5
REMARK    6  A    between atoms: C_6  and  C_7
REMARK    7  A    between atoms: C_7  and  N_8
REMARK    8  A    between atoms: N_8  and  C_9
REMARK    9  A    between atoms: C_19  and  C_20
REMARK   10  A    between atoms: C_20  and  C_21
REMARK   11  A    between atoms: C_20  and  C_22
REMARK   12  A    between atoms: C_20  and  C_23
REMARK                            x       y       z     vdW  Elec       q    Type
REMARK                         _______ _______ _______ _____ _____    ______ ____
ROOT
ATOM      1  C   UNL     1      22.868   0.820  52.399  0.00  0.00    +0.000 A 
ATOM      2  C   UNL     1      21.844   0.059  51.800  0.00  0.00    +0.000 A 
ATOM      3  C   UNL     1      21.273   0.380  50.541  0.00  0.00    +0.000 A 
ATOM      4  C   UNL     1      21.864   1.422  49.833  0.00  0.00    +0.000 A 
ATOM      5  N   UNL     1      21.685   1.940  48.571  0.00  0.00    +0.000 NA
ATOM      6  C   UNL     1      22.586   2.905  48.457  0.00  0.00    +0.000 A 
ATOM      7  N   UNL     1      23.369   2.978  49.574  0.00  0.00    +0.000 N 
ATOM      8  C   UNL     1      24.372   3.863  49.993  0.00  0.00    +0.000 A 
ATOM      9  C   UNL     1      25.318   4.454  49.194  0.00  0.00    +0.000 A 
ATOM     10  C   UNL     1      25.672   5.724  49.583  0.00  0.00    +0.000 A 
ATOM     11  C   UNL     1      24.687   6.443  50.261  0.00  0.00    +0.000 A 
ATOM     12  C   UNL     1      24.296   5.717  51.415  0.00  0.00    +0.000 A 
ATOM     13  C   UNL     1      24.200   4.341  51.291  0.00  0.00    +0.000 A 
ATOM     14  C   UNL     1      23.855   3.302  52.341  0.00  0.00    +0.000 A 
ATOM     15  O   UNL     1      24.129   3.472  53.511  0.00  0.00    +0.000 OA
ATOM     16  C   UNL     1      23.154   2.061  51.832  0.00  0.00    +0.000 A 
ATOM     17  C   UNL     1      22.800   2.159  50.491  0.00  0.00    +0.000 A 
ENDROOT
BRANCH  11  18
ATOM     18  C   UNL     1      23.523   6.968  49.242  0.00  0.00    +0.000 C 
ATOM     19  C   UNL     1      23.807   6.636  47.730  0.00  0.00    +0.000 C 
ATOM     20  C   UNL     1      22.107   6.431  49.573  0.00  0.00    +0.000 C 
ATOM     21  C   UNL     1      23.456   8.505  49.260  0.00  0.00    +0.000 C 
ENDBRANCH  11  18
BRANCH   1  22
ATOM     22  N   UNL     1      23.594   0.344  53.503  0.00  0.00    +0.000 N 
ATOM     23  H   UNL     1      23.249   0.465  54.417  0.00  0.00    +0.000 HD
BRANCH  22  24
ATOM     24  C   UNL     1      24.885  -0.341  53.274  0.00  0.00    +0.000 C 
BRANCH  24  25
ATOM     25  C   UNL     1      26.034  -0.017  54.285  0.00  0.00    +0.000 C 
BRANCH  25  26
ATOM     26  N   UNL     1      27.318   0.467  53.726  0.00  0.00    +0.000 N 
ATOM     27  H   UNL     1      27.435   0.037  52.808  0.00  0.00    +0.000 HD
BRANCH  26  29
ATOM     28  C   UNL     1      27.230   2.267  52.000  0.00  0.00    +0.000 C 
ATOM     29  C   UNL     1      27.305   1.918  53.485  0.00  0.00    +0.000 C 
ENDBRANCH  26  29
BRANCH  26  30
ATOM     30  C   UNL     1      28.469   0.020  54.541  0.00  0.00    +0.000 C 
ATOM     31  C   UNL     1      29.618  -0.697  53.829  0.00  0.00    +0.000 C 
ENDBRANCH  26  30
ENDBRANCH  25  26
ENDBRANCH  24  25
ENDBRANCH  22  24
ENDBRANCH   1  22
TORSDOF 7
ENDMDL
MODEL 5
REMARK VINA RESULT:    -7.555      5.217      7.503
REMARK INTER + INTRA:         -10.988
REMARK INTER:                 -10.527
REMARK INTRA:                  -0.460
REMARK UNBOUND:                -0.341
REMARK  Name = 
REMARK  12 active torsions:
REMARK  status: ('A' for Active; 'I' for Inactive)
REMARK    1  A    between atoms: C_1  and  C_2
REMARK    2  A    between atoms: C_2  and  N_3
REMARK    3  A    between atoms: N_3  and  C_4
REMARK    4  A    between atoms: N_3  and  C_6
REMARK    5  A    between atoms: C_4  and  C_5
REMARK    6  A    between atoms: C_6  and  C_7
REMARK    7  A    between atoms: C_7  and  N_8
REMARK    8  A    between atoms: N_8  and  C_9
REMARK    9  A    between atoms: C_19  and  C_20
REMARK   10  A    between atoms: C_20  and  C_21
REMARK   11  A    between atoms: C_20  and  C_22
REMARK   12  A    between atoms: C_20  and  C_23
REMARK                            x       y       z     vdW  Elec       q    Type
REMARK                         _______ _______ _______ _____ _____    ______ ____
ROOT
ATOM      1  C   UNL     1      26.356   6.055  48.775  0.00  0.00    +0.000 A 
ATOM      2  C   UNL     1      25.620   7.059  48.112  0.00  0.00    +0.000 A 
ATOM      3  C   UNL     1      24.226   7.247  48.293  0.00  0.00    +0.000 A 
ATOM      4  C   UNL     1      23.612   6.476  49.275  0.00  0.00    +0.000 A 
ATOM      5  N   UNL     1      22.347   6.451  49.816  0.00  0.00    +0.000 NA
ATOM      6  C   UNL     1      22.386   5.516  50.755  0.00  0.00    +0.000 A 
ATOM      7  N   UNL     1      23.643   4.992  50.872  0.00  0.00    +0.000 N 
ATOM      8  C   UNL     1      24.182   3.938  51.622  0.00  0.00    +0.000 A 
ATOM      9  C   UNL     1      23.831   3.590  52.902  0.00  0.00    +0.000 A 
ATOM     10  C   UNL     1      23.885   2.241  53.155  0.00  0.00    +0.000 A 
ATOM     11  C   UNL     1      23.673   1.411  52.053  0.00  0.00    +0.000 A 
ATOM     12  C   UNL     1      24.633   1.716  51.053  0.00  0.00    +0.000 A 
ATOM     13  C   UNL     1      24.956   3.051  50.876  0.00  0.00    +0.000 A 
ATOM     14  C   UNL     1      25.965   3.679  49.934  0.00  0.00    +0.000 A 
ATOM     15  O   UNL     1      26.970   3.088  49.599  0.00  0.00    +0.000 OA
ATOM     16  C   UNL     1      25.629   5.073  49.447  0.00  0.00    +0.000 A 
ATOM     17  C   UNL     1      24.357   5.481  49.830  0.00  0.00    +0.000 A 
ENDROOT
BRANCH  11  18
ATOM     18  C   UNL     1      22.095   1.375  51.628  0.00  0.00    +0.000 C 
ATOM     19  C   UNL     1      21.182   2.318  52.496  0.00  0.00    +0.000 C 
ATOM     20  C   UNL     1      21.835   1.725  50.141  0.00  0.00    +0.000 C 
ATOM     21  C   UNL     1      21.509  -0.023  51.889  0.00  0.00    +0.000 C 
ENDBRANCH  11  18
BRANCH   1  22
ATOM     22  N   UNL     1      27.760   6.053  48.788  0.00  0.00    +0.000 N 
ATOM     23  H   UNL     1      28.253   5.434  49.375  0.00  0.00    +0.000 HD
BRANCH  22  24
ATOM     24  C   UNL     1      28.490   6.992  47.909  0.00  0.00    +0.000 C 
BRANCH  24  25
ATOM     25  C   UNL     1      29.805   7.609  48.488  0.00  0.00    +0.000 C 
BRANCH  25  26
ATOM     26  N   UNL     1      29.668   8.691  49.491  0.00  0.00    +0.000 N 
ATOM     27  H   UNL     1      29.630   8.253  50.412  0.00  0.00    +0.000 HD
BRANCH  26  29
ATOM     28  C   UNL     1      30.544  10.973  48.995  0.00  0.00    +0.000 C 
ATOM     29  C   UNL     1      30.845   9.572  49.519  0.00  0.00    +0.000 C 
ENDBRANCH  26  29
BRANCH  26  30
ATOM     30  C   UNL     1      28.393   9.424  49.330  0.00  0.00    +0.000 C 
ATOM     31  C   UNL     1      27.351   9.306  50.445  0.00  0.00    +0.000 C 
ENDBRANCH  26  30
ENDBRANCH  25  26
ENDBRANCH  24  25
ENDBRANCH  22  24
ENDBRANCH   1  22
TORSDOF 7
ENDMDL
MODEL 6
REMARK VINA RESULT:    -7.490      2.128      6.449
REMARK INTER + INTRA:         -10.895
REMARK INTER:                  -9.934
REMARK INTRA:                  -0.961
REMARK UNBOUND:                -0.341
REMARK  Name = 
REMARK  12 active torsions:
REMARK  status: ('A' for Active; 'I' for Inactive)
REMARK    1  A    between atoms: C_1  and  C_2
REMARK    2  A    between atoms: C_2  and  N_3
REMARK    3  A    between atoms: N_3  and  C_4
REMARK    4  A    between atoms: N_3  and  C_6
REMARK    5  A    between atoms: C_4  and  C_5
REMARK    6  A    between atoms: C_6  and  C_7
REMARK    7  A    between atoms: C_7  and  N_8
REMARK    8  A    between atoms: N_8  and  C_9
REMARK    9  A    between atoms: C_19  and  C_20
REMARK   10  A    between atoms: C_20  and  C_21
REMARK   11  A    between atoms: C_20  and  C_22
REMARK   12  A    between atoms: C_20  and  C_23
REMARK                            x       y       z     vdW  Elec       q    Type
REMARK                         _______ _______ _______ _____ _____    ______ ____
ROOT
ATOM      1  C   UNL     1      20.836   1.278  51.261  0.00  0.00    +0.000 A 
ATOM      2  C   UNL     1      19.937   0.320  51.773  0.00  0.00    +0.000 A 
ATOM      3  C   UNL     1      20.285  -0.606  52.789  0.00  0.00    +0.000 A 
ATOM      4  C   UNL     1      21.537  -0.449  53.377  0.00  0.00    +0.000 A 
ATOM      5  N   UNL     1      22.174  -1.049  54.440  0.00  0.00    +0.000 NA
ATOM      6  C   UNL     1      23.342  -0.433  54.541  0.00  0.00    +0.000 A 
ATOM      7  N   UNL     1      23.446   0.575  53.624  0.00  0.00    +0.000 N 
ATOM      8  C   UNL     1      24.485   1.441  53.255  0.00  0.00    +0.000 A 
ATOM      9  C   UNL     1      25.409   2.004  54.097  0.00  0.00    +0.000 A 
ATOM     10  C   UNL     1      26.654   2.168  53.540  0.00  0.00    +0.000 A 
ATOM     11  C   UNL     1      26.991   1.259  52.536  0.00  0.00    +0.000 A 
ATOM     12  C   UNL     1      26.025   1.336  51.500  0.00  0.00    +0.000 A 
ATOM     13  C   UNL     1      24.704   1.507  51.880  0.00  0.00    +0.000 A 
ATOM     14  C   UNL     1      23.468   1.668  51.016  0.00  0.00    +0.000 A 
ATOM     15  O   UNL     1      23.526   2.188  49.921  0.00  0.00    +0.000 OA
ATOM     16  C   UNL     1      22.179   1.140  51.609  0.00  0.00    +0.000 A 
ATOM     17  C   UNL     1      22.381   0.445  52.795  0.00  0.00    +0.000 A 
ENDROOT
BRANCH  11  18
ATOM     18  C   UNL     1      27.346  -0.211  53.156  0.00  0.00    +0.000 C 
ATOM     19  C   UNL     1      27.104  -0.320  54.708  0.00  0.00    +0.000 C 
ATOM     20  C   UNL     1      26.579  -1.380  52.488  0.00  0.00    +0.000 C 
ATOM     21  C   UNL     1      28.851  -0.496  53.012  0.00  0.00    +0.000 C 
ENDBRANCH  11  18
BRANCH   1  22
ATOM     22  N   UNL     1      20.402   2.345  50.458  0.00  0.00    +0.000 N 
ATOM     23  H   UNL     1      20.338   2.240  49.480  0.00  0.00    +0.000 HD
BRANCH  22  24
ATOM     24  C   UNL     1      20.044   3.629  51.097  0.00  0.00    +0.000 C 
BRANCH  24  25
ATOM     25  C   UNL     1      20.725   4.912  50.514  0.00  0.00    +0.000 C 
BRANCH  25  26
ATOM     26  N   UNL     1      21.733   5.593  51.359  0.00  0.00    +0.000 N 
ATOM     27  H   UNL     1      21.281   6.405  51.782  0.00  0.00    +0.000 HD
BRANCH  26  29
ATOM     28  C   UNL     1      23.642   4.960  52.835  0.00  0.00    +0.000 C 
ATOM     29  C   UNL     1      22.171   4.754  52.484  0.00  0.00    +0.000 C 
ENDBRANCH  26  29
BRANCH  26  30
ATOM     30  C   UNL     1      22.855   6.120  50.551  0.00  0.00    +0.000 C 
ATOM     31  C   UNL     1      22.914   7.628  50.302  0.00  0.00    +0.000 C 
ENDBRANCH  26  30
ENDBRANCH  25  26
ENDBRANCH  24  25
ENDBRANCH  22  24
ENDBRANCH   1  22
TORSDOF 7
ENDMDL
MODEL 7
REMARK VINA RESULT:    -6.887      2.815      6.570
REMARK INTER + INTRA:         -10.046
REMARK INTER:                  -9.707
REMARK INTRA:                  -0.339
REMARK UNBOUND:                -0.341
REMARK  Name = 
REMARK  12 active torsions:
REMARK  status: ('A' for Active; 'I' for Inactive)
REMARK    1  A    between atoms: C_1  and  C_2
REMARK    2  A    between atoms: C_2  and  N_3
REMARK    3  A    between atoms: N_3  and  C_4
REMARK    4  A    between atoms: N_3  and  C_6
REMARK    5  A    between atoms: C_4  and  C_5
REMARK    6  A    between atoms: C_6  and  C_7
REMARK    7  A    between atoms: C_7  and  N_8
REMARK    8  A    between atoms: N_8  and  C_9
REMARK    9  A    between atoms: C_19  and  C_20
REMARK   10  A    between atoms: C_20  and  C_21
REMARK   11  A    between atoms: C_20  and  C_22
REMARK   12  A    between atoms: C_20  and  C_23
REMARK                            x       y       z     vdW  Elec       q    Type
REMARK                         _______ _______ _______ _____ _____    ______ ____
ROOT
ATOM      1  C   UNL     1      21.272  -0.225  53.668  0.00  0.00    +0.000 A 
ATOM      2  C   UNL     1      22.367  -1.055  53.985  0.00  0.00    +0.000 A 
ATOM      3  C   UNL     1      23.714  -0.693  53.727  0.00  0.00    +0.000 A 
ATOM      4  C   UNL     1      23.938   0.599  53.262  0.00  0.00    +0.000 A 
ATOM      5  N   UNL     1      25.071   1.342  53.017  0.00  0.00    +0.000 NA
ATOM      6  C   UNL     1      24.632   2.530  52.627  0.00  0.00    +0.000 A 
ATOM      7  N   UNL     1      23.268   2.589  52.675  0.00  0.00    +0.000 N 
ATOM      8  C   UNL     1      22.329   3.553  52.282  0.00  0.00    +0.000 A 
ATOM      9  C   UNL     1      22.471   4.913  52.387  0.00  0.00    +0.000 A 
ATOM     10  C   UNL     1      21.877   5.623  51.373  0.00  0.00    +0.000 A 
ATOM     11  C   UNL     1      21.776   4.958  50.150  0.00  0.00    +0.000 A 
ATOM     12  C   UNL     1      21.050   3.754  50.336  0.00  0.00    +0.000 A 
ATOM     13  C   UNL     1      21.290   3.047  51.502  0.00  0.00    +0.000 A 
ATOM     14  C   UNL     1      20.647   1.768  52.001  0.00  0.00    +0.000 A 
ATOM     15  O   UNL     1      19.500   1.486  51.720  0.00  0.00    +0.000 OA
ATOM     16  C   UNL     1      21.525   0.882  52.860  0.00  0.00    +0.000 A 
ATOM     17  C   UNL     1      22.841   1.324  52.913  0.00  0.00    +0.000 A 
ENDROOT
BRANCH  11  18
ATOM     18  C   UNL     1      23.222   4.883  49.391  0.00  0.00    +0.000 C 
ATOM     19  C   UNL     1      24.374   5.646  50.145  0.00  0.00    +0.000 C 
ATOM     20  C   UNL     1      23.721   3.440  49.128  0.00  0.00    +0.000 C 
ATOM     21  C   UNL     1      23.146   5.607  48.035  0.00  0.00    +0.000 C 
ENDBRANCH  11  18
BRANCH   1  22
ATOM     22  N   UNL     1      19.983  -0.479  54.165  0.00  0.00    +0.000 N 
ATOM     23  H   UNL     1      19.653  -0.005  54.963  0.00  0.00    +0.000 HD
BRANCH  22  24
ATOM     24  C   UNL     1      19.128  -1.469  53.476  0.00  0.00    +0.000 C 
BRANCH  24  25
ATOM     25  C   UNL     1      17.600  -1.141  53.404  0.00  0.00    +0.000 C 
BRANCH  25  26
ATOM     26  N   UNL     1      16.860  -1.598  52.205  0.00  0.00    +0.000 N 
ATOM     27  H   UNL     1      17.527  -2.068  51.593  0.00  0.00    +0.000 HD
BRANCH  26  29
ATOM     28  C   UNL     1      16.405  -3.761  53.362  0.00  0.00    +0.000 C 
ATOM     29  C   UNL     1      15.843  -2.608  52.533  0.00  0.00    +0.000 C 
ENDBRANCH  26  29
BRANCH  26  30
ATOM     30  C   UNL     1      16.321  -0.457  51.430  0.00  0.00    +0.000 C 
ATOM     31  C   UNL     1      16.911  -0.189  50.044  0.00  0.00    +0.000 C 
ENDBRANCH  26  30
ENDBRANCH  25  26
ENDBRANCH  24  25
ENDBRANCH  22  24
ENDBRANCH   1  22
TORSDOF 7
ENDMDL
MODEL 8
REMARK VINA RESULT:    -6.840      2.125      7.661
REMARK INTER + INTRA:          -9.980
REMARK INTER:                  -9.552
REMARK INTRA:                  -0.428
REMARK UNBOUND:                -0.341
REMARK  Name = 
REMARK  12 active torsions:
REMARK  status: ('A' for Active; 'I' for Inactive)
REMARK    1  A    between atoms: C_1  and  C_2
REMARK    2  A    between atoms: C_2  and  N_3
REMARK    3  A    between atoms: N_3  and  C_4
REMARK    4  A    between atoms: N_3  and  C_6
REMARK    5  A    between atoms: C_4  and  C_5
REMARK    6  A    between atoms: C_6  and  C_7
REMARK    7  A    between atoms: C_7  and  N_8
REMARK    8  A    between atoms: N_8  and  C_9
REMARK    9  A    between atoms: C_19  and  C_20
REMARK   10  A    between atoms: C_20  and  C_21
REMARK   11  A    between atoms: C_20  and  C_22
REMARK   12  A    between atoms: C_20  and  C_23
REMARK                            x       y       z     vdW  Elec       q    Type
REMARK                         _______ _______ _______ _____ _____    ______ ____
ROOT
ATOM      1  C   UNL     1      21.281   1.617  50.944  0.00  0.00    +0.000 A 
ATOM      2  C   UNL     1      20.354   0.634  51.346  0.00  0.00    +0.000 A 
ATOM      3  C   UNL     1      20.643  -0.351  52.326  0.00  0.00    +0.000 A 
ATOM      4  C   UNL     1      21.857  -0.230  52.995  0.00  0.00    +0.000 A 
ATOM      5  N   UNL     1      22.431  -0.891  54.058  0.00  0.00    +0.000 NA
ATOM      6  C   UNL     1      23.590  -0.284  54.263  0.00  0.00    +0.000 A 
ATOM      7  N   UNL     1      23.747   0.774  53.413  0.00  0.00    +0.000 N 
ATOM      8  C   UNL     1      24.804   1.658  53.156  0.00  0.00    +0.000 A 
ATOM      9  C   UNL     1      25.677   2.170  54.083  0.00  0.00    +0.000 A 
ATOM     10  C   UNL     1      26.953   2.363  53.612  0.00  0.00    +0.000 A 
ATOM     11  C   UNL     1      27.349   1.512  52.579  0.00  0.00    +0.000 A 
ATOM     12  C   UNL     1      26.446   1.651  51.493  0.00  0.00    +0.000 A 
ATOM     13  C   UNL     1      25.105   1.802  51.803  0.00  0.00    +0.000 A 
ATOM     14  C   UNL     1      23.922   2.015  50.878  0.00  0.00    +0.000 A 
ATOM     15  O   UNL     1      24.045   2.597  49.820  0.00  0.00    +0.000 OA
ATOM     16  C   UNL     1      22.601   1.457  51.363  0.00  0.00    +0.000 A 
ATOM     17  C   UNL     1      22.733   0.694  52.517  0.00  0.00    +0.000 A 
ENDROOT
BRANCH  11  18
ATOM     18  C   UNL     1      27.669   0.009  53.134  0.00  0.00    +0.000 C 
ATOM     19  C   UNL     1      27.379  -0.176  54.670  0.00  0.00    +0.000 C 
ATOM     20  C   UNL     1      26.910  -1.115  52.384  0.00  0.00    +0.000 C 
ATOM     21  C   UNL     1      29.175  -0.288  53.020  0.00  0.00    +0.000 C 
ENDBRANCH  11  18
BRANCH   1  22
ATOM     22  N   UNL     1      20.894   2.729  50.179  0.00  0.00    +0.000 N 
ATOM     23  H   UNL     1      21.408   3.569  50.223  0.00  0.00    +0.000 HD
BRANCH  22  24
ATOM     24  C   UNL     1      19.704   2.625  49.307  0.00  0.00    +0.000 C 
BRANCH  24  25
ATOM     25  C   UNL     1      18.424   3.389  49.779  0.00  0.00    +0.000 C 
BRANCH  25  26
ATOM     26  N   UNL     1      17.132   2.670  49.702  0.00  0.00    +0.000 N 
ATOM     27  H   UNL     1      16.627   3.031  48.892  0.00  0.00    +0.000 HD
BRANCH  26  29
ATOM     28  C   UNL     1      16.764   0.360  50.572  0.00  0.00    +0.000 C 
ATOM     29  C   UNL     1      17.313   1.233  49.446  0.00  0.00    +0.000 C 
ENDBRANCH  26  29
BRANCH  26  30
ATOM     30  C   UNL     1      16.280   2.951  50.879  0.00  0.00    +0.000 C 
ATOM     31  C   UNL     1      16.673   4.120  51.786  0.00  0.00    +0.000 C 
ENDBRANCH  26  30
ENDBRANCH  25  26
ENDBRANCH  24  25
ENDBRANCH  22  24
ENDBRANCH   1  22
TORSDOF 7
ENDMDL
MODEL 9
REMARK VINA RESULT:    -6.728      4.810      6.714
REMARK INTER + INTRA:          -9.822
REMARK INTER:                  -9.524
REMARK INTRA:                  -0.299
REMARK UNBOUND:                -0.341
REMARK  Name = 
REMARK  12 active torsions:
REMARK  status: ('A' for Active; 'I' for Inactive)
REMARK    1  A    between atoms: C_1  and  C_2
REMARK    2  A    between atoms: C_2  and  N_3
REMARK    3  A    between atoms: N_3  and  C_4
REMARK    4  A    between atoms: N_3  and  C_6
REMARK    5  A    between atoms: C_4  and  C_5
REMARK    6  A    between atoms: C_6  and  C_7
REMARK    7  A    between atoms: C_7  and  N_8
REMARK    8  A    between atoms: N_8  and  C_9
REMARK    9  A    between atoms: C_19  and  C_20
REMARK   10  A    between atoms: C_20  and  C_21
REMARK   11  A    between atoms: C_20  and  C_22
REMARK   12  A    between atoms: C_20  and  C_23
REMARK                            x       y       z     vdW  Elec       q    Type
REMARK                         _______ _______ _______ _____ _____    ______ ____
ROOT
ATOM      1  C   UNL     1      23.213   3.944  50.452  0.00  0.00    +0.000 A 
ATOM      2  C   UNL     1      22.156   4.380  51.277  0.00  0.00    +0.000 A 
ATOM      3  C   UNL     1      21.839   5.749  51.473  0.00  0.00    +0.000 A 
ATOM      4  C   UNL     1      22.536   6.671  50.697  0.00  0.00    +0.000 A 
ATOM      5  N   UNL     1      22.437   8.031  50.513  0.00  0.00    +0.000 NA
ATOM      6  C   UNL     1      23.357   8.329  49.607  0.00  0.00    +0.000 A 
ATOM      7  N   UNL     1      23.992   7.203  49.164  0.00  0.00    +0.000 N 
ATOM      8  C   UNL     1      25.079   6.982  48.308  0.00  0.00    +0.000 A 
ATOM      9  C   UNL     1      25.375   7.692  47.171  0.00  0.00    +0.000 A 
ATOM     10  C   UNL     1      26.719   7.831  46.926  0.00  0.00    +0.000 A 
ATOM     11  C   UNL     1      27.542   7.818  48.054  0.00  0.00    +0.000 A 
ATOM     12  C   UNL     1      27.341   6.602  48.758  0.00  0.00    +0.000 A 
ATOM     13  C   UNL     1      26.045   6.122  48.829  0.00  0.00    +0.000 A 
ATOM     14  C   UNL     1      25.525   4.846  49.463  0.00  0.00    +0.000 A 
ATOM     15  O   UNL     1      26.211   3.847  49.524  0.00  0.00    +0.000 OA
ATOM     16  C   UNL     1      24.114   4.910  50.008  0.00  0.00    +0.000 A 
ATOM     17  C   UNL     1      23.586   6.195  49.974  0.00  0.00    +0.000 A 
ENDROOT
BRANCH  11  18
ATOM     18  C   UNL     1      27.441   9.222  48.883  0.00  0.00    +0.000 C 
ATOM     19  C   UNL     1      26.490  10.285  48.218  0.00  0.00    +0.000 C 
ATOM     20  C   UNL     1      26.984   9.053  50.355  0.00  0.00    +0.000 C 
ATOM     21  C   UNL     1      28.807   9.929  48.896  0.00  0.00    +0.000 C 
ENDBRANCH  11  18
BRANCH   1  22
ATOM     22  N   UNL     1      23.343   2.600  50.066  0.00  0.00    +0.000 N 
ATOM     23  H   UNL     1      23.481   2.363  49.120  0.00  0.00    +0.000 HD
BRANCH  22  24
ATOM     24  C   UNL     1      23.271   1.544  51.099  0.00  0.00    +0.000 C 
BRANCH  24  25
ATOM     25  C   UNL     1      24.373   1.576  52.208  0.00  0.00    +0.000 C 
BRANCH  25  26
ATOM     26  N   UNL     1      24.480   0.397  53.099  0.00  0.00    +0.000 N 
ATOM     27  H   UNL     1      24.554   0.742  54.056  0.00  0.00    +0.000 HD
BRANCH  26  29
ATOM     28  C   UNL     1      22.788  -0.829  54.463  0.00  0.00    +0.000 C 
ATOM     29  C   UNL     1      23.265  -0.431  53.068  0.00  0.00    +0.000 C 
ENDBRANCH  26  29
BRANCH  26  30
ATOM     30  C   UNL     1      25.717  -0.371  52.839  0.00  0.00    +0.000 C 
ATOM     31  C   UNL     1      26.965   0.402  52.406  0.00  0.00    +0.000 C 
ENDBRANCH  26  30
ENDBRANCH  25  26
ENDBRANCH  24  25
ENDBRANCH  22  24
ENDBRANCH   1  22
TORSDOF 7
ENDMDL
