MODEL 1
REMARK VINA RESULT:    -9.735      0.000      0.000
REMARK INTER + INTRA:         -12.850
REMARK INTER:                 -11.726
REMARK INTRA:                  -1.123
REMARK UNBOUND:                -1.123
REMARK  Name = 
REMARK  5 active torsions:
REMARK  status: ('A' for Active; 'I' for Inactive)
REMARK    1  A    between atoms: C_1  and  C_2
REMARK    2  A    between atoms: C_10  and  C_11
REMARK    3  A    between atoms: C_14  and  N_15
REMARK    4  A    between atoms: C_20  and  C_22
REMARK    5  A    between atoms: C_22  and  C_23
REMARK                            x       y       z     vdW  Elec       q    Type
REMARK                         _______ _______ _______ _____ _____    ______ ____
ROOT
ATOM      1  C   UNL     1      24.095   4.192  49.007  0.00  0.00    +0.000 C 
ATOM      2  C   UNL     1      23.163   3.505  50.011  0.00  0.00    +0.000 C 
ATOM      3  C   UNL     1      23.053   1.990  49.731  0.00  0.00    +0.000 C 
ATOM      4  C   UNL     1      22.446   1.272  50.911  0.00  0.00    +0.000 A 
ATOM      5  C   UNL     1      21.158   0.730  50.847  0.00  0.00    +0.000 A 
ATOM      6  C   UNL     1      20.647   0.155  51.999  0.00  0.00    +0.000 A 
ATOM      7  C   UNL     1      21.375   0.084  53.165  0.00  0.00    +0.000 A 
ATOM      8  C   UNL     1      22.650   0.589  53.266  0.00  0.00    +0.000 A 
ATOM      9  C   UNL     1      23.178   1.200  52.125  0.00  0.00    +0.000 A 
ATOM     10  C   UNL     1      24.514   1.870  52.209  0.00  0.00    +0.000 C 
ATOM     11  N   UNL     1      24.710   3.114  51.857  0.00  0.00    +0.000 NA
ATOM     12  N   UNL     1      23.593   3.795  51.399  0.00  0.00    +0.000 N 
ATOM     13  C   UNL     1      23.109   4.829  52.213  0.00  0.00    +0.000 C 
ATOM     14  O   UNL     1      23.625   5.132  53.296  0.00  0.00    +0.000 OA
ATOM     15  O   UNL     1      20.680  -0.511  54.172  0.00  0.00    +0.000 OA
ATOM     16  C   UNL     1      19.392  -0.669  53.545  0.00  0.00    +0.000 C 
ATOM     17  O   UNL     1      19.400  -0.372  52.133  0.00  0.00    +0.000 OA
ENDROOT
BRANCH  10  18
ATOM     18  C   UNL     1      25.660   1.077  52.743  0.00  0.00    +0.000 A 
ATOM     19  C   UNL     1      26.375   1.515  53.865  0.00  0.00    +0.000 A 
ATOM     20  C   UNL     1      27.491   0.802  54.311  0.00  0.00    +0.000 A 
ATOM     21  C   UNL     1      27.930  -0.334  53.629  0.00  0.00    +0.000 A 
ATOM     22  C   UNL     1      27.152  -0.826  52.577  0.00  0.00    +0.000 A 
ATOM     23  C   UNL     1      26.033  -0.119  52.121  0.00  0.00    +0.000 A 
BRANCH  21  24
ATOM     24  N   UNL     1      28.997  -1.085  54.133  0.00  0.00    +0.000 N 
ATOM     25  H   UNL     1      28.825  -1.828  54.757  0.00  0.00    +0.000 HD
ATOM     26  H   UNL     1      29.920  -0.872  53.865  0.00  0.00    +0.000 HD
ENDBRANCH  21  24
ENDBRANCH  10  18
BRANCH  13  27
ATOM     27  C   UNL     1      21.832   5.551  51.778  0.00  0.00    +0.000 C 
BRANCH  27  28
ATOM     28  C   UNL     1      22.107   6.759  50.907  0.00  0.00    +0.000 A 
ATOM     29  C   UNL     1      21.055   7.390  50.226  0.00  0.00    +0.000 A 
ATOM     30  C   UNL     1      21.295   8.482  49.390  0.00  0.00    +0.000 A 
ATOM     31  C   UNL     1      22.592   8.963  49.228  0.00  0.00    +0.000 A 
ATOM     32  C   UNL     1      23.645   8.363  49.917  0.00  0.00    +0.000 A 
ATOM     33  C   UNL     1      23.404   7.272  50.758  0.00  0.00    +0.000 A 
ENDBRANCH  27  28
ENDBRANCH  13  27
TORSDOF 4
ENDMDL
MODEL 2
REMARK VINA RESULT:    -9.468      1.435      2.351
REMARK INTER + INTRA:         -12.528
REMARK INTER:                 -10.470
REMARK INTRA:                  -2.058
REMARK UNBOUND:                -1.123
REMARK  Name = 
REMARK  5 active torsions:
REMARK  status: ('A' for Active; 'I' for Inactive)
REMARK    1  A    between atoms: C_1  and  C_2
REMARK    2  A    between atoms: C_10  and  C_11
REMARK    3  A    between atoms: C_14  and  N_15
REMARK    4  A    between atoms: C_20  and  C_22
REMARK    5  A    between atoms: C_22  and  C_23
REMARK                            x       y       z     vdW  Elec       q    Type
REMARK                         _______ _______ _______ _____ _____    ______ ____
ROOT
ATOM      1  C   UNL     1      24.460   4.512  48.770  0.00  0.00    +0.000 C 
ATOM      2  C   UNL     1      23.416   3.805  49.642  0.00  0.00    +0.000 C 
ATOM      3  C   UNL     1      23.351   2.295  49.327  0.00  0.00    +0.000 C 
ATOM      4  C   UNL     1      22.608   1.555  50.412  0.00  0.00    +0.000 A 
ATOM      5  C   UNL     1      21.341   1.009  50.184  0.00  0.00    +0.000 A 
ATOM      6  C   UNL     1      20.696   0.413  51.255  0.00  0.00    +0.000 A 
ATOM      7  C   UNL     1      21.277   0.326  52.501  0.00  0.00    +0.000 A 
ATOM      8  C   UNL     1      22.527   0.835  52.764  0.00  0.00    +0.000 A 
ATOM      9  C   UNL     1      23.188   1.466  51.706  0.00  0.00    +0.000 A 
ATOM     10  C   UNL     1      24.499   2.140  51.963  0.00  0.00    +0.000 C 
ATOM     11  N   UNL     1      24.729   3.391  51.656  0.00  0.00    +0.000 NA
ATOM     12  N   UNL     1      23.672   4.075  51.076  0.00  0.00    +0.000 N 
ATOM     13  C   UNL     1      23.086   5.094  51.841  0.00  0.00    +0.000 C 
ATOM     14  O   UNL     1      23.464   5.381  52.984  0.00  0.00    +0.000 OA
ATOM     15  O   UNL     1      20.468  -0.287  53.406  0.00  0.00    +0.000 OA
ATOM     16  C   UNL     1      19.267  -0.441  52.624  0.00  0.00    +0.000 C 
ATOM     17  O   UNL     1      19.446  -0.121  51.227  0.00  0.00    +0.000 OA
ENDROOT
BRANCH  10  18
ATOM     18  C   UNL     1      25.576   1.343  52.620  0.00  0.00    +0.000 A 
ATOM     19  C   UNL     1      26.008   1.654  53.916  0.00  0.00    +0.000 A 
ATOM     20  C   UNL     1      27.068   0.947  54.492  0.00  0.00    +0.000 A 
ATOM     21  C   UNL     1      27.730  -0.053  53.778  0.00  0.00    +0.000 A 
ATOM     22  C   UNL     1      27.226  -0.429  52.529  0.00  0.00    +0.000 A 
ATOM     23  C   UNL     1      26.167   0.272  51.942  0.00  0.00    +0.000 A 
BRANCH  21  24
ATOM     24  N   UNL     1      28.733  -0.808  54.395  0.00  0.00    +0.000 N 
ATOM     25  H   UNL     1      29.102  -0.521  55.263  0.00  0.00    +0.000 HD
ATOM     26  H   UNL     1      29.069  -1.627  53.964  0.00  0.00    +0.000 HD
ENDBRANCH  21  24
ENDBRANCH  10  18
BRANCH  13  27
ATOM     27  C   UNL     1      21.868   5.817  51.264  0.00  0.00    +0.000 C 
BRANCH  27  28
ATOM     28  C   UNL     1      20.690   4.892  51.033  0.00  0.00    +0.000 A 
ATOM     29  C   UNL     1      20.061   4.854  49.779  0.00  0.00    +0.000 A 
ATOM     30  C   UNL     1      18.952   4.035  49.559  0.00  0.00    +0.000 A 
ATOM     31  C   UNL     1      18.460   3.237  50.588  0.00  0.00    +0.000 A 
ATOM     32  C   UNL     1      19.090   3.243  51.831  0.00  0.00    +0.000 A 
ATOM     33  C   UNL     1      20.203   4.060  52.051  0.00  0.00    +0.000 A 
ENDBRANCH  27  28
ENDBRANCH  13  27
TORSDOF 4
ENDMDL
MODEL 3
REMARK VINA RESULT:    -9.338      3.015      5.731
REMARK INTER + INTRA:         -12.371
REMARK INTER:                 -10.735
REMARK INTRA:                  -1.637
REMARK UNBOUND:                -1.123
REMARK  Name = 
REMARK  5 active torsions:
REMARK  status: ('A' for Active; 'I' for Inactive)
REMARK    1  A    between atoms: C_1  and  C_2
REMARK    2  A    between atoms: C_10  and  C_11
REMARK    3  A    between atoms: C_14  and  N_15
REMARK    4  A    between atoms: C_20  and  C_22
REMARK    5  A    between atoms: C_22  and  C_23
REMARK                            x       y       z     vdW  Elec       q    Type
REMARK                         _______ _______ _______ _____ _____    ______ ____
ROOT
ATOM      1  C   UNL     1      20.168   5.544  50.649  0.00  0.00    +0.000 C 
ATOM      2  C   UNL     1      21.421   4.670  50.783  0.00  0.00    +0.000 C 
ATOM      3  C   UNL     1      21.756   4.393  52.264  0.00  0.00    +0.000 C 
ATOM      4  C   UNL     1      22.744   3.258  52.384  0.00  0.00    +0.000 A 
ATOM      5  C   UNL     1      24.064   3.484  52.788  0.00  0.00    +0.000 A 
ATOM      6  C   UNL     1      24.926   2.400  52.798  0.00  0.00    +0.000 A 
ATOM      7  C   UNL     1      24.511   1.133  52.452  0.00  0.00    +0.000 A 
ATOM      8  C   UNL     1      23.219   0.865  52.064  0.00  0.00    +0.000 A 
ATOM      9  C   UNL     1      22.336   1.947  52.020  0.00  0.00    +0.000 A 
ATOM     10  C   UNL     1      20.951   1.737  51.495  0.00  0.00    +0.000 C 
ATOM     11  N   UNL     1      20.441   2.451  50.524  0.00  0.00    +0.000 NA
ATOM     12  N   UNL     1      21.270   3.426  49.992  0.00  0.00    +0.000 N 
ATOM     13  C   UNL     1      21.716   3.225  48.678  0.00  0.00    +0.000 C 
ATOM     14  O   UNL     1      21.412   2.230  48.008  0.00  0.00    +0.000 OA
ATOM     15  O   UNL     1      25.519   0.223  52.522  0.00  0.00    +0.000 OA
ATOM     16  C   UNL     1      26.636   1.088  52.807  0.00  0.00    +0.000 C 
ATOM     17  O   UNL     1      26.248   2.445  53.112  0.00  0.00    +0.000 OA
ENDROOT
BRANCH  10  18
ATOM     18  C   UNL     1      20.133   0.645  52.100  0.00  0.00    +0.000 A 
ATOM     19  C   UNL     1      18.901   0.279  51.543  0.00  0.00    +0.000 A 
ATOM     20  C   UNL     1      18.111  -0.695  52.161  0.00  0.00    +0.000 A 
ATOM     21  C   UNL     1      18.520  -1.292  53.355  0.00  0.00    +0.000 A 
ATOM     22  C   UNL     1      19.795  -1.001  53.846  0.00  0.00    +0.000 A 
ATOM     23  C   UNL     1      20.594  -0.026  53.236  0.00  0.00    +0.000 A 
BRANCH  21  24
ATOM     24  N   UNL     1      17.761  -2.323  53.917  0.00  0.00    +0.000 N 
ATOM     25  H   UNL     1      17.302  -2.972  53.335  0.00  0.00    +0.000 HD
ATOM     26  H   UNL     1      17.684  -2.402  54.896  0.00  0.00    +0.000 HD
ENDBRANCH  21  24
ENDBRANCH  10  18
BRANCH  13  27
ATOM     27  C   UNL     1      22.694   4.241  48.086  0.00  0.00    +0.000 C 
BRANCH  27  28
ATOM     28  C   UNL     1      24.072   4.165  48.713  0.00  0.00    +0.000 A 
ATOM     29  C   UNL     1      24.804   5.338  48.946  0.00  0.00    +0.000 A 
ATOM     30  C   UNL     1      26.090   5.284  49.489  0.00  0.00    +0.000 A 
ATOM     31  C   UNL     1      26.658   4.055  49.812  0.00  0.00    +0.000 A 
ATOM     32  C   UNL     1      25.933   2.882  49.610  0.00  0.00    +0.000 A 
ATOM     33  C   UNL     1      24.644   2.936  49.071  0.00  0.00    +0.000 A 
ENDBRANCH  27  28
ENDBRANCH  13  27
TORSDOF 4
ENDMDL
MODEL 4
REMARK VINA RESULT:    -9.309      2.714      5.211
REMARK INTER + INTRA:         -12.336
REMARK INTER:                 -11.590
REMARK INTRA:                  -0.746
REMARK UNBOUND:                -1.123
REMARK  Name = 
REMARK  5 active torsions:
REMARK  status: ('A' for Active; 'I' for Inactive)
REMARK    1  A    between atoms: C_1  and  C_2
REMARK    2  A    between atoms: C_10  and  C_11
REMARK    3  A    between atoms: C_14  and  N_15
REMARK    4  A    between atoms: C_20  and  C_22
REMARK    5  A    between atoms: C_22  and  C_23
REMARK                            x       y       z     vdW  Elec       q    Type
REMARK                         _______ _______ _______ _____ _____    ______ ____
ROOT
ATOM      1  C   UNL     1      23.046   5.380  52.019  0.00  0.00    +0.000 C 
ATOM      2  C   UNL     1      23.991   4.174  51.972  0.00  0.00    +0.000 C 
ATOM      3  C   UNL     1      24.197   3.565  53.375  0.00  0.00    +0.000 C 
ATOM      4  C   UNL     1      24.814   2.192  53.276  0.00  0.00    +0.000 A 
ATOM      5  C   UNL     1      26.133   1.957  53.678  0.00  0.00    +0.000 A 
ATOM      6  C   UNL     1      26.646   0.686  53.482  0.00  0.00    +0.000 A 
ATOM      7  C   UNL     1      25.893  -0.331  52.939  0.00  0.00    +0.000 A 
ATOM      8  C   UNL     1      24.589  -0.147  52.545  0.00  0.00    +0.000 A 
ATOM      9  C   UNL     1      24.055   1.135  52.706  0.00  0.00    +0.000 A 
ATOM     10  C   UNL     1      22.681   1.423  52.190  0.00  0.00    +0.000 C 
ATOM     11  N   UNL     1      22.421   2.407  51.367  0.00  0.00    +0.000 NA
ATOM     12  N   UNL     1      23.508   3.179  50.986  0.00  0.00    +0.000 N 
ATOM     13  C   UNL     1      23.909   3.083  49.646  0.00  0.00    +0.000 C 
ATOM     14  O   UNL     1      23.348   2.346  48.825  0.00  0.00    +0.000 OA
ATOM     15  O   UNL     1      26.595  -1.491  52.827  0.00  0.00    +0.000 OA
ATOM     16  C   UNL     1      27.906  -1.044  53.226  0.00  0.00    +0.000 C 
ATOM     17  O   UNL     1      27.918   0.295  53.766  0.00  0.00    +0.000 OA
ENDROOT
BRANCH  10  18
ATOM     18  C   UNL     1      21.569   0.526  52.622  0.00  0.00    +0.000 A 
ATOM     19  C   UNL     1      20.356   0.498  51.922  0.00  0.00    +0.000 A 
ATOM     20  C   UNL     1      19.298  -0.292  52.380  0.00  0.00    +0.000 A 
ATOM     21  C   UNL     1      19.420  -1.036  53.555  0.00  0.00    +0.000 A 
ATOM     22  C   UNL     1      20.665  -1.087  54.189  0.00  0.00    +0.000 A 
ATOM     23  C   UNL     1      21.732  -0.300  53.739  0.00  0.00    +0.000 A 
BRANCH  21  24
ATOM     24  N   UNL     1      18.384  -1.887  53.956  0.00  0.00    +0.000 N 
ATOM     25  H   UNL     1      18.467  -2.860  53.826  0.00  0.00    +0.000 HD
ATOM     26  H   UNL     1      17.572  -1.513  54.370  0.00  0.00    +0.000 HD
ENDBRANCH  21  24
ENDBRANCH  10  18
BRANCH  13  27
ATOM     27  C   UNL     1      25.152   3.860  49.209  0.00  0.00    +0.000 C 
BRANCH  27  28
ATOM     28  C   UNL     1      24.834   5.268  48.748  0.00  0.00    +0.000 A 
ATOM     29  C   UNL     1      23.540   5.589  48.308  0.00  0.00    +0.000 A 
ATOM     30  C   UNL     1      23.239   6.871  47.846  0.00  0.00    +0.000 A 
ATOM     31  C   UNL     1      24.226   7.853  47.823  0.00  0.00    +0.000 A 
ATOM     32  C   UNL     1      25.508   7.557  48.281  0.00  0.00    +0.000 A 
ATOM     33  C   UNL     1      25.810   6.274  48.748  0.00  0.00    +0.000 A 
ENDBRANCH  27  28
ENDBRANCH  13  27
TORSDOF 4
ENDMDL
MODEL 5
REMARK VINA RESULT:    -9.105      2.361      4.922
REMARK INTER + INTRA:         -12.091
REMARK INTER:                  -9.777
REMARK INTRA:                  -2.314
REMARK UNBOUND:                -1.123
REMARK  Name = 
REMARK  5 active torsions:
REMARK  status: ('A' for Active; 'I' for Inactive)
REMARK    1  A    between atoms: C_1  and  C_2
REMARK    2  A    between atoms: C_10  and  C_11
REMARK    3  A    between atoms: C_14  and  N_15
REMARK    4  A    between atoms: C_20  and  C_22
REMARK    5  A    between atoms: C_22  and  C_23
REMARK                            x       y       z     vdW  Elec       q    Type
REMARK                         _______ _______ _______ _____ _____    ______ ____
ROOT
ATOM      1  C   UNL     1      20.416   3.027  52.787  0.00  0.00    +0.000 C 
ATOM      2  C   UNL     1      21.409   3.589  51.764  0.00  0.00    +0.000 C 
ATOM      3  C   UNL     1      22.449   4.511  52.436  0.00  0.00    +0.000 C 
ATOM      4  C   UNL     1      23.616   4.761  51.513  0.00  0.00    +0.000 A 
ATOM      5  C   UNL     1      23.825   6.014  50.928  0.00  0.00    +0.000 A 
ATOM      6  C   UNL     1      24.876   6.137  50.034  0.00  0.00    +0.000 A 
ATOM      7  C   UNL     1      25.712   5.084  49.740  0.00  0.00    +0.000 A 
ATOM      8  C   UNL     1      25.552   3.841  50.305  0.00  0.00    +0.000 A 
ATOM      9  C   UNL     1      24.482   3.682  51.190  0.00  0.00    +0.000 A 
ATOM     10  C   UNL     1      24.190   2.324  51.745  0.00  0.00    +0.000 C 
ATOM     11  N   UNL     1      23.015   1.755  51.654  0.00  0.00    +0.000 NA
ATOM     12  N   UNL     1      22.039   2.488  50.997  0.00  0.00    +0.000 N 
ATOM     13  C   UNL     1      21.605   1.992  49.759  0.00  0.00    +0.000 C 
ATOM     14  O   UNL     1      22.062   0.961  49.249  0.00  0.00    +0.000 OA
ATOM     15  O   UNL     1      26.668   5.422  48.832  0.00  0.00    +0.000 OA
ATOM     16  C   UNL     1      26.244   6.755  48.488  0.00  0.00    +0.000 C 
ATOM     17  O   UNL     1      25.192   7.261  49.337  0.00  0.00    +0.000 OA
ENDROOT
BRANCH  10  18
ATOM     18  C   UNL     1      25.304   1.586  52.410  0.00  0.00    +0.000 A 
ATOM     19  C   UNL     1      25.881   0.462  51.806  0.00  0.00    +0.000 A 
ATOM     20  C   UNL     1      26.873  -0.262  52.472  0.00  0.00    +0.000 A 
ATOM     21  C   UNL     1      27.280   0.100  53.757  0.00  0.00    +0.000 A 
ATOM     22  C   UNL     1      26.778   1.283  54.309  0.00  0.00    +0.000 A 
ATOM     23  C   UNL     1      25.783   2.015  53.652  0.00  0.00    +0.000 A 
BRANCH  21  24
ATOM     24  N   UNL     1      28.332  -0.582  54.378  0.00  0.00    +0.000 N 
ATOM     25  H   UNL     1      28.513  -0.441  55.336  0.00  0.00    +0.000 HD
ATOM     26  H   UNL     1      28.891  -1.204  53.858  0.00  0.00    +0.000 HD
ENDBRANCH  21  24
ENDBRANCH  10  18
BRANCH  13  27
ATOM     27  C   UNL     1      20.586   2.815  48.970  0.00  0.00    +0.000 C 
BRANCH  27  28
ATOM     28  C   UNL     1      21.148   4.135  48.482  0.00  0.00    +0.000 A 
ATOM     29  C   UNL     1      20.477   5.334  48.766  0.00  0.00    +0.000 A 
ATOM     30  C   UNL     1      20.961   6.555  48.293  0.00  0.00    +0.000 A 
ATOM     31  C   UNL     1      22.127   6.595  47.534  0.00  0.00    +0.000 A 
ATOM     32  C   UNL     1      22.819   5.416  47.264  0.00  0.00    +0.000 A 
ATOM     33  C   UNL     1      22.338   4.192  47.741  0.00  0.00    +0.000 A 
ENDBRANCH  27  28
ENDBRANCH  13  27
TORSDOF 4
ENDMDL
MODEL 6
REMARK VINA RESULT:    -8.669      3.031      6.176
REMARK INTER + INTRA:         -11.566
REMARK INTER:                  -9.284
REMARK INTRA:                  -2.282
REMARK UNBOUND:                -1.123
REMARK  Name = 
REMARK  5 active torsions:
REMARK  status: ('A' for Active; 'I' for Inactive)
REMARK    1  A    between atoms: C_1  and  C_2
REMARK    2  A    between atoms: C_10  and  C_11
REMARK    3  A    between atoms: C_14  and  N_15
REMARK    4  A    between atoms: C_20  and  C_22
REMARK    5  A    between atoms: C_22  and  C_23
REMARK                            x       y       z     vdW  Elec       q    Type
REMARK                         _______ _______ _______ _____ _____    ______ ____
ROOT
ATOM      1  C   UNL     1      23.984   4.705  54.101  0.00  0.00    +0.000 C 
ATOM      2  C   UNL     1      23.310   4.152  52.841  0.00  0.00    +0.000 C 
ATOM      3  C   UNL     1      22.744   5.287  51.961  0.00  0.00    +0.000 C 
ATOM      4  C   UNL     1      22.418   4.779  50.578  0.00  0.00    +0.000 A 
ATOM      5  C   UNL     1      21.094   4.646  50.146  0.00  0.00    +0.000 A 
ATOM      6  C   UNL     1      20.881   4.099  48.892  0.00  0.00    +0.000 A 
ATOM      7  C   UNL     1      21.921   3.721  48.073  0.00  0.00    +0.000 A 
ATOM      8  C   UNL     1      23.236   3.848  48.453  0.00  0.00    +0.000 A 
ATOM      9  C   UNL     1      23.479   4.372  49.726  0.00  0.00    +0.000 A 
ATOM     10  C   UNL     1      24.884   4.426  50.237  0.00  0.00    +0.000 C 
ATOM     11  N   UNL     1      25.247   3.900  51.378  0.00  0.00    +0.000 NA
ATOM     12  N   UNL     1      24.244   3.271  52.100  0.00  0.00    +0.000 N 
ATOM     13  C   UNL     1      24.335   1.877  52.222  0.00  0.00    +0.000 C 
ATOM     14  O   UNL     1      25.246   1.214  51.710  0.00  0.00    +0.000 OA
ATOM     15  O   UNL     1      21.487   3.201  46.893  0.00  0.00    +0.000 OA
ATOM     16  C   UNL     1      20.065   3.166  47.129  0.00  0.00    +0.000 C 
ATOM     17  O   UNL     1      19.665   3.852  48.334  0.00  0.00    +0.000 OA
ENDROOT
BRANCH  10  18
ATOM     18  C   UNL     1      25.912   5.093  49.385  0.00  0.00    +0.000 A 
ATOM     19  C   UNL     1      27.136   4.468  49.117  0.00  0.00    +0.000 A 
ATOM     20  C   UNL     1      28.119   5.134  48.379  0.00  0.00    +0.000 A 
ATOM     21  C   UNL     1      27.910   6.439  47.927  0.00  0.00    +0.000 A 
ATOM     22  C   UNL     1      26.649   7.015  48.106  0.00  0.00    +0.000 A 
ATOM     23  C   UNL     1      25.658   6.358  48.845  0.00  0.00    +0.000 A 
BRANCH  21  24
ATOM     24  N   UNL     1      28.867   7.062  47.119  0.00  0.00    +0.000 N 
ATOM     25  H   UNL     1      29.768   6.673  47.034  0.00  0.00    +0.000 HD
ATOM     26  H   UNL     1      28.640   7.889  46.635  0.00  0.00    +0.000 HD
ENDBRANCH  21  24
ENDBRANCH  10  18
BRANCH  13  27
ATOM     27  C   UNL     1      23.205   1.142  52.944  0.00  0.00    +0.000 C 
BRANCH  27  28
ATOM     28  C   UNL     1      21.913   1.126  52.152  0.00  0.00    +0.000 A 
ATOM     29  C   UNL     1      21.922   0.754  50.799  0.00  0.00    +0.000 A 
ATOM     30  C   UNL     1      20.747   0.769  50.044  0.00  0.00    +0.000 A 
ATOM     31  C   UNL     1      19.545   1.151  50.635  0.00  0.00    +0.000 A 
ATOM     32  C   UNL     1      19.516   1.499  51.984  0.00  0.00    +0.000 A 
ATOM     33  C   UNL     1      20.691   1.480  52.742  0.00  0.00    +0.000 A 
ENDBRANCH  27  28
ENDBRANCH  13  27
TORSDOF 4
ENDMDL
MODEL 7
REMARK VINA RESULT:    -8.623      3.211      5.137
REMARK INTER + INTRA:         -11.510
REMARK INTER:                  -9.969
REMARK INTRA:                  -1.541
REMARK UNBOUND:                -1.123
REMARK  Name = 
REMARK  5 active torsions:
REMARK  status: ('A' for Active; 'I' for Inactive)
REMARK    1  A    between atoms: C_1  and  C_2
REMARK    2  A    between atoms: C_10  and  C_11
REMARK    3  A    between atoms: C_14  and  N_15
REMARK    4  A    between atoms: C_20  and  C_22
REMARK    5  A    between atoms: C_22  and  C_23
REMARK                            x       y       z     vdW  Elec       q    Type
REMARK                         _______ _______ _______ _____ _____    ______ ____
ROOT
ATOM      1  C   UNL     1      20.273   3.411  46.894  0.00  0.00    +0.000 C 
ATOM      2  C   UNL     1      20.589   2.919  48.311  0.00  0.00    +0.000 C 
ATOM      3  C   UNL     1      21.614   1.765  48.290  0.00  0.00    +0.000 C 
ATOM      4  C   UNL     1      22.189   1.537  49.666  0.00  0.00    +0.000 A 
ATOM      5  C   UNL     1      21.871   0.393  50.406  0.00  0.00    +0.000 A 
ATOM      6  C   UNL     1      22.380   0.298  51.691  0.00  0.00    +0.000 A 
ATOM      7  C   UNL     1      23.194   1.270  52.228  0.00  0.00    +0.000 A 
ATOM      8  C   UNL     1      23.543   2.402  51.530  0.00  0.00    +0.000 A 
ATOM      9  C   UNL     1      23.020   2.535  50.240  0.00  0.00    +0.000 A 
ATOM     10  C   UNL     1      23.272   3.798  49.478  0.00  0.00    +0.000 C 
ATOM     11  N   UNL     1      22.312   4.520  48.960  0.00  0.00    +0.000 NA
ATOM     12  N   UNL     1      21.024   4.049  49.165  0.00  0.00    +0.000 N 
ATOM     13  C   UNL     1      20.201   4.811  50.006  0.00  0.00    +0.000 C 
ATOM     14  O   UNL     1      20.583   5.849  50.562  0.00  0.00    +0.000 OA
ATOM     15  O   UNL     1      23.571   0.981  53.503  0.00  0.00    +0.000 OA
ATOM     16  C   UNL     1      22.787  -0.203  53.747  0.00  0.00    +0.000 C 
ATOM     17  O   UNL     1      22.134  -0.714  52.566  0.00  0.00    +0.000 OA
ENDROOT
BRANCH  10  18
ATOM     18  C   UNL     1      24.685   4.254  49.329  0.00  0.00    +0.000 A 
ATOM     19  C   UNL     1      24.978   5.585  49.003  0.00  0.00    +0.000 A 
ATOM     20  C   UNL     1      26.302   5.982  48.795  0.00  0.00    +0.000 A 
ATOM     21  C   UNL     1      27.345   5.058  48.876  0.00  0.00    +0.000 A 
ATOM     22  C   UNL     1      27.057   3.759  49.306  0.00  0.00    +0.000 A 
ATOM     23  C   UNL     1      25.735   3.350  49.516  0.00  0.00    +0.000 A 
BRANCH  21  24
ATOM     24  N   UNL     1      28.671   5.485  48.748  0.00  0.00    +0.000 N 
ATOM     25  H   UNL     1      29.094   5.521  47.859  0.00  0.00    +0.000 HD
ATOM     26  H   UNL     1      29.183   5.751  49.546  0.00  0.00    +0.000 HD
ENDBRANCH  21  24
ENDBRANCH  10  18
BRANCH  13  27
ATOM     27  C   UNL     1      18.800   4.281  50.317  0.00  0.00    +0.000 C 
BRANCH  27  28
ATOM     28  C   UNL     1      18.822   2.926  50.994  0.00  0.00    +0.000 A 
ATOM     29  C   UNL     1      18.101   1.854  50.445  0.00  0.00    +0.000 A 
ATOM     30  C   UNL     1      18.079   0.609  51.075  0.00  0.00    +0.000 A 
ATOM     31  C   UNL     1      18.784   0.415  52.261  0.00  0.00    +0.000 A 
ATOM     32  C   UNL     1      19.525   1.463  52.804  0.00  0.00    +0.000 A 
ATOM     33  C   UNL     1      19.551   2.709  52.172  0.00  0.00    +0.000 A 
ENDBRANCH  27  28
ENDBRANCH  13  27
TORSDOF 4
ENDMDL
MODEL 8
REMARK VINA RESULT:    -8.264      2.350      3.427
REMARK INTER + INTRA:         -11.078
REMARK INTER:                  -9.827
REMARK INTRA:                  -1.251
REMARK UNBOUND:                -1.123
REMARK  Name = 
REMARK  5 active torsions:
REMARK  status: ('A' for Active; 'I' for Inactive)
REMARK    1  A    between atoms: C_1  and  C_2
REMARK    2  A    between atoms: C_10  and  C_11
REMARK    3  A    between atoms: C_14  and  N_15
REMARK    4  A    between atoms: C_20  and  C_22
REMARK    5  A    between atoms: C_22  and  C_23
REMARK                            x       y       z     vdW  Elec       q    Type
REMARK                         _______ _______ _______ _____ _____    ______ ____
ROOT
ATOM      1  C   UNL     1      26.171   3.772  49.782  0.00  0.00    +0.000 C 
ATOM      2  C   UNL     1      24.641   3.849  49.728  0.00  0.00    +0.000 C 
ATOM      3  C   UNL     1      24.034   2.563  49.126  0.00  0.00    +0.000 C 
ATOM      4  C   UNL     1      22.554   2.489  49.408  0.00  0.00    +0.000 A 
ATOM      5  C   UNL     1      21.611   2.650  48.388  0.00  0.00    +0.000 A 
ATOM      6  C   UNL     1      20.272   2.645  48.745  0.00  0.00    +0.000 A 
ATOM      7  C   UNL     1      19.864   2.460  50.047  0.00  0.00    +0.000 A 
ATOM      8  C   UNL     1      20.758   2.283  51.077  0.00  0.00    +0.000 A 
ATOM      9  C   UNL     1      22.115   2.312  50.748  0.00  0.00    +0.000 A 
ATOM     10  C   UNL     1      23.133   2.240  51.842  0.00  0.00    +0.000 C 
ATOM     11  N   UNL     1      24.083   3.128  51.991  0.00  0.00    +0.000 NA
ATOM     12  N   UNL     1      24.092   4.162  51.068  0.00  0.00    +0.000 N 
ATOM     13  C   UNL     1      23.775   5.440  51.551  0.00  0.00    +0.000 C 
ATOM     14  O   UNL     1      23.484   5.660  52.734  0.00  0.00    +0.000 OA
ATOM     15  O   UNL     1      18.510   2.500  50.174  0.00  0.00    +0.000 OA
ATOM     16  C   UNL     1      18.131   2.872  48.835  0.00  0.00    +0.000 C 
ATOM     17  O   UNL     1      19.227   2.837  47.896  0.00  0.00    +0.000 OA
ENDROOT
BRANCH  10  18
ATOM     18  C   UNL     1      23.035   1.112  52.814  0.00  0.00    +0.000 A 
ATOM     19  C   UNL     1      21.809   0.775  53.401  0.00  0.00    +0.000 A 
ATOM     20  C   UNL     1      21.743  -0.235  54.364  0.00  0.00    +0.000 A 
ATOM     21  C   UNL     1      22.899  -0.901  54.779  0.00  0.00    +0.000 A 
ATOM     22  C   UNL     1      24.099  -0.635  54.114  0.00  0.00    +0.000 A 
ATOM     23  C   UNL     1      24.176   0.376  53.149  0.00  0.00    +0.000 A 
BRANCH  21  24
ATOM     24  N   UNL     1      22.808  -1.966  55.681  0.00  0.00    +0.000 N 
ATOM     25  H   UNL     1      23.329  -2.788  55.528  0.00  0.00    +0.000 HD
ATOM     26  H   UNL     1      22.223  -1.895  56.470  0.00  0.00    +0.000 HD
ENDBRANCH  21  24
ENDBRANCH  10  18
BRANCH  13  27
ATOM     27  C   UNL     1      23.699   6.591  50.548  0.00  0.00    +0.000 C 
BRANCH  27  28
ATOM     28  C   UNL     1      22.280   6.907  50.121  0.00  0.00    +0.000 A 
ATOM     29  C   UNL     1      21.939   8.206  49.716  0.00  0.00    +0.000 A 
ATOM     30  C   UNL     1      20.628   8.524  49.355  0.00  0.00    +0.000 A 
ATOM     31  C   UNL     1      19.640   7.543  49.387  0.00  0.00    +0.000 A 
ATOM     32  C   UNL     1      19.968   6.241  49.762  0.00  0.00    +0.000 A 
ATOM     33  C   UNL     1      21.282   5.922  50.119  0.00  0.00    +0.000 A 
ENDBRANCH  27  28
ENDBRANCH  13  27
TORSDOF 4
ENDMDL
MODEL 9
REMARK VINA RESULT:    -8.136      3.063      7.200
REMARK INTER + INTRA:         -10.924
REMARK INTER:                 -10.306
REMARK INTRA:                  -0.618
REMARK UNBOUND:                -1.123
REMARK  Name = 
REMARK  5 active torsions:
REMARK  status: ('A' for Active; 'I' for Inactive)
REMARK    1  A    between atoms: C_1  and  C_2
REMARK    2  A    between atoms: C_10  and  C_11
REMARK    3  A    between atoms: C_14  and  N_15
REMARK    4  A    between atoms: C_20  and  C_22
REMARK    5  A    between atoms: C_22  and  C_23
REMARK                            x       y       z     vdW  Elec       q    Type
REMARK                         _______ _______ _______ _____ _____    ______ ____
ROOT
ATOM      1  C   UNL     1      24.029   3.346  53.268  0.00  0.00    +0.000 C 
ATOM      2  C   UNL     1      23.225   4.091  52.197  0.00  0.00    +0.000 C 
ATOM      3  C   UNL     1      23.476   5.613  52.262  0.00  0.00    +0.000 C 
ATOM      4  C   UNL     1      22.987   6.289  51.005  0.00  0.00    +0.000 A 
ATOM      5  C   UNL     1      21.860   7.118  51.018  0.00  0.00    +0.000 A 
ATOM      6  C   UNL     1      21.433   7.638  49.807  0.00  0.00    +0.000 A 
ATOM      7  C   UNL     1      22.095   7.383  48.628  0.00  0.00    +0.000 A 
ATOM      8  C   UNL     1      23.215   6.586  48.574  0.00  0.00    +0.000 A 
ATOM      9  C   UNL     1      23.651   6.027  49.778  0.00  0.00    +0.000 A 
ATOM     10  C   UNL     1      24.794   5.060  49.762  0.00  0.00    +0.000 C 
ATOM     11  N   UNL     1      24.720   3.863  50.283  0.00  0.00    +0.000 NA
ATOM     12  N   UNL     1      23.504   3.526  50.856  0.00  0.00    +0.000 N 
ATOM     13  C   UNL     1      22.755   2.534  50.207  0.00  0.00    +0.000 C 
ATOM     14  O   UNL     1      23.131   1.979  49.166  0.00  0.00    +0.000 OA
ATOM     15  O   UNL     1      21.501   7.983  47.562  0.00  0.00    +0.000 OA
ATOM     16  C   UNL     1      20.318   8.518  48.187  0.00  0.00    +0.000 C 
ATOM     17  O   UNL     1      20.333   8.418  49.627  0.00  0.00    +0.000 OA
ENDROOT
BRANCH  10  18
ATOM     18  C   UNL     1      26.060   5.487  49.098  0.00  0.00    +0.000 A 
ATOM     19  C   UNL     1      27.123   4.589  48.935  0.00  0.00    +0.000 A 
ATOM     20  C   UNL     1      28.329   5.020  48.378  0.00  0.00    +0.000 A 
ATOM     21  C   UNL     1      28.506   6.355  48.006  0.00  0.00    +0.000 A 
ATOM     22  C   UNL     1      27.409   7.219  48.071  0.00  0.00    +0.000 A 
ATOM     23  C   UNL     1      26.197   6.798  48.629  0.00  0.00    +0.000 A 
BRANCH  21  24
ATOM     24  N   UNL     1      29.688   6.755  47.373  0.00  0.00    +0.000 N 
ATOM     25  H   UNL     1      30.376   6.087  47.147  0.00  0.00    +0.000 HD
ATOM     26  H   UNL     1      29.832   7.703  47.152  0.00  0.00    +0.000 HD
ENDBRANCH  21  24
ENDBRANCH  10  18
BRANCH  13  27
ATOM     27  C   UNL     1      21.373   2.193  50.766  0.00  0.00    +0.000 C 
BRANCH  27  28
ATOM     28  C   UNL     1      21.434   1.255  51.954  0.00  0.00    +0.000 A 
ATOM     29  C   UNL     1      22.419   0.257  52.012  0.00  0.00    +0.000 A 
ATOM     30  C   UNL     1      22.467  -0.639  53.082  0.00  0.00    +0.000 A 
ATOM     31  C   UNL     1      21.535  -0.545  54.112  0.00  0.00    +0.000 A 
ATOM     32  C   UNL     1      20.567   0.457  54.082  0.00  0.00    +0.000 A 
ATOM     33  C   UNL     1      20.521   1.358  53.013  0.00  0.00    +0.000 A 
ENDBRANCH  27  28
ENDBRANCH  13  27
TORSDOF 4
ENDMDL
