MODEL 1
REMARK VINA RESULT:    -7.875      0.000      0.000
REMARK INTER + INTRA:         -10.061
REMARK INTER:                  -9.716
REMARK INTRA:                  -0.345
REMARK UNBOUND:                -0.345
REMARK  Name = 
REMARK  6 active torsions:
REMARK  status: ('A' for Active; 'I' for Inactive)
REMARK    1  A    between atoms: C_1  and  N_2
REMARK    2  A    between atoms: N_2  and  C_3
REMARK    3  A    between atoms: N_2  and  C_4
REMARK    4  A    between atoms: C_9  and  S_10
REMARK    5  A    between atoms: S_10  and  N_13
REMARK    6  A    between atoms: N_13  and  C_14
REMARK                            x       y       z     vdW  Elec       q    Type
REMARK                         _______ _______ _______ _____ _____    ______ ____
ROOT
ATOM      1  C   UNL     1      25.998   0.058  53.189  0.00  0.00    +0.000 A 
ATOM      2  C   UNL     1      25.995   0.964  52.109  0.00  0.00    +0.000 A 
ATOM      3  C   UNL     1      24.846   1.621  51.697  0.00  0.00    +0.000 A 
ATOM      4  C   UNL     1      23.627   1.290  52.266  0.00  0.00    +0.000 A 
ATOM      5  C   UNL     1      23.512   0.292  53.256  0.00  0.00    +0.000 A 
ATOM      6  C   UNL     1      22.260  -0.148  53.777  0.00  0.00    +0.000 A 
ATOM      7  C   UNL     1      22.193  -0.943  54.925  0.00  0.00    +0.000 A 
ATOM      8  C   UNL     1      23.362  -1.346  55.543  0.00  0.00    +0.000 A 
ATOM      9  C   UNL     1      24.596  -1.019  54.975  0.00  0.00    +0.000 A 
ATOM     10  C   UNL     1      24.725  -0.249  53.795  0.00  0.00    +0.000 A 
ENDROOT
BRANCH   1  12
ATOM     11  C   UNL     1      28.173   0.525  54.245  0.00  0.00    +0.000 C 
ATOM     12  N   UNL     1      27.232  -0.442  53.673  0.00  0.00    +0.000 N 
ATOM     13  C   UNL     1      27.868  -1.554  52.958  0.00  0.00    +0.000 C 
ENDBRANCH   1  12
BRANCH   6  14
ATOM     14  S   UNL     1      20.699   0.274  53.009  0.00  0.00    +0.000 S 
ATOM     15  O   UNL     1      20.440   1.679  53.239  0.00  0.00    +0.000 OA
ATOM     16  O   UNL     1      20.711  -0.246  51.657  0.00  0.00    +0.000 OA
BRANCH  14  17
ATOM     17  N   UNL     1      19.545  -0.585  53.855  0.00  0.00    +0.000 N 
ATOM     18  H   UNL     1      19.659  -0.706  54.825  0.00  0.00    +0.000 HD
BRANCH  17  19
ATOM     19  C   UNL     1      18.419  -1.140  53.231  0.00  0.00    +0.000 A 
ATOM     20  C   UNL     1      17.919  -2.400  53.546  0.00  0.00    +0.000 A 
ATOM     21  N   UNL     1      16.701  -2.835  53.122  0.00  0.00    +0.000 NA
ATOM     22  C   UNL     1      16.016  -1.954  52.363  0.00  0.00    +0.000 A 
ATOM     23 CL   UNL     1      14.448  -2.445  51.884  0.00  0.00    +0.000 Cl
ATOM     24  C   UNL     1      16.523  -0.703  52.036  0.00  0.00    +0.000 A 
ATOM     25  N   UNL     1      17.731  -0.258  52.478  0.00  0.00    +0.000 NA
ENDBRANCH  17  19
ENDBRANCH  14  17
ENDBRANCH   6  14
TORSDOF 4
ENDMDL
MODEL 2
REMARK VINA RESULT:    -7.697      6.179      8.663
REMARK INTER + INTRA:          -9.841
REMARK INTER:                  -9.692
REMARK INTRA:                  -0.150
REMARK UNBOUND:                -0.345
REMARK  Name = 
REMARK  6 active torsions:
REMARK  status: ('A' for Active; 'I' for Inactive)
REMARK    1  A    between atoms: C_1  and  N_2
REMARK    2  A    between atoms: N_2  and  C_3
REMARK    3  A    between atoms: N_2  and  C_4
REMARK    4  A    between atoms: C_9  and  S_10
REMARK    5  A    between atoms: S_10  and  N_13
REMARK    6  A    between atoms: N_13  and  C_14
REMARK                            x       y       z     vdW  Elec       q    Type
REMARK                         _______ _______ _______ _____ _____    ______ ____
ROOT
ATOM      1  C   UNL     1      25.827   6.369  49.248  0.00  0.00    +0.000 A 
ATOM      2  C   UNL     1      26.911   5.571  48.830  0.00  0.00    +0.000 A 
ATOM      3  C   UNL     1      27.006   4.225  49.153  0.00  0.00    +0.000 A 
ATOM      4  C   UNL     1      26.087   3.664  50.024  0.00  0.00    +0.000 A 
ATOM      5  C   UNL     1      25.049   4.422  50.604  0.00  0.00    +0.000 A 
ATOM      6  C   UNL     1      24.159   3.901  51.589  0.00  0.00    +0.000 A 
ATOM      7  C   UNL     1      22.996   4.588  51.951  0.00  0.00    +0.000 A 
ATOM      8  C   UNL     1      22.725   5.816  51.377  0.00  0.00    +0.000 A 
ATOM      9  C   UNL     1      23.648   6.391  50.500  0.00  0.00    +0.000 A 
ATOM     10  C   UNL     1      24.857   5.760  50.126  0.00  0.00    +0.000 A 
ENDROOT
BRANCH   1  12
ATOM     11  C   UNL     1      25.812   7.860  47.287  0.00  0.00    +0.000 C 
ATOM     12  N   UNL     1      25.697   7.685  48.738  0.00  0.00    +0.000 N 
ATOM     13  C   UNL     1      26.235   8.800  49.525  0.00  0.00    +0.000 C 
ENDBRANCH   1  12
BRANCH   6  14
ATOM     14  S   UNL     1      24.459   2.348  52.427  0.00  0.00    +0.000 S 
ATOM     15  O   UNL     1      23.237   1.936  53.083  0.00  0.00    +0.000 OA
ATOM     16  O   UNL     1      25.113   1.454  51.493  0.00  0.00    +0.000 OA
BRANCH  14  17
ATOM     17  N   UNL     1      25.566   2.701  53.626  0.00  0.00    +0.000 N 
ATOM     18  H   UNL     1      25.436   3.511  54.169  0.00  0.00    +0.000 HD
BRANCH  17  19
ATOM     19  C   UNL     1      26.674   1.882  53.885  0.00  0.00    +0.000 A 
ATOM     20  C   UNL     1      26.571   0.634  54.493  0.00  0.00    +0.000 A 
ATOM     21  N   UNL     1      27.600  -0.256  54.524  0.00  0.00    +0.000 NA
ATOM     22  C   UNL     1      28.735   0.167  53.929  0.00  0.00    +0.000 A 
ATOM     23 CL   UNL     1      30.019  -0.964  53.884  0.00  0.00    +0.000 Cl
ATOM     24  C   UNL     1      28.841   1.418  53.336  0.00  0.00    +0.000 A 
ATOM     25  N   UNL     1      27.805   2.301  53.284  0.00  0.00    +0.000 NA
ENDBRANCH  17  19
ENDBRANCH  14  17
ENDBRANCH   6  14
TORSDOF 4
ENDMDL
MODEL 3
REMARK VINA RESULT:    -7.654      3.299      3.953
REMARK INTER + INTRA:          -9.789
REMARK INTER:                  -9.455
REMARK INTRA:                  -0.334
REMARK UNBOUND:                -0.345
REMARK  Name = 
REMARK  6 active torsions:
REMARK  status: ('A' for Active; 'I' for Inactive)
REMARK    1  A    between atoms: C_1  and  N_2
REMARK    2  A    between atoms: N_2  and  C_3
REMARK    3  A    between atoms: N_2  and  C_4
REMARK    4  A    between atoms: C_9  and  S_10
REMARK    5  A    between atoms: S_10  and  N_13
REMARK    6  A    between atoms: N_13  and  C_14
REMARK                            x       y       z     vdW  Elec       q    Type
REMARK                         _______ _______ _______ _____ _____    ______ ____
ROOT
ATOM      1  C   UNL     1      26.157  -0.006  53.345  0.00  0.00    +0.000 A 
ATOM      2  C   UNL     1      26.202   0.870  52.242  0.00  0.00    +0.000 A 
ATOM      3  C   UNL     1      25.069   1.501  51.751  0.00  0.00    +0.000 A 
ATOM      4  C   UNL     1      23.826   1.169  52.262  0.00  0.00    +0.000 A 
ATOM      5  C   UNL     1      23.669   0.197  53.271  0.00  0.00    +0.000 A 
ATOM      6  C   UNL     1      22.396  -0.247  53.737  0.00  0.00    +0.000 A 
ATOM      7  C   UNL     1      22.276  -1.011  54.901  0.00  0.00    +0.000 A 
ATOM      8  C   UNL     1      23.416  -1.381  55.592  0.00  0.00    +0.000 A 
ATOM      9  C   UNL     1      24.674  -1.053  55.082  0.00  0.00    +0.000 A 
ATOM     10  C   UNL     1      24.857  -0.314  53.890  0.00  0.00    +0.000 A 
ENDROOT
BRANCH   1  12
ATOM     11  C   UNL     1      28.150   0.469  54.713  0.00  0.00    +0.000 C 
ATOM     12  N   UNL     1      27.369  -0.475  53.908  0.00  0.00    +0.000 N 
ATOM     13  C   UNL     1      28.178  -1.427  53.139  0.00  0.00    +0.000 C 
ENDBRANCH   1  12
BRANCH   6  14
ATOM     14  S   UNL     1      20.874   0.134  52.875  0.00  0.00    +0.000 S 
ATOM     15  O   UNL     1      21.116   0.038  51.452  0.00  0.00    +0.000 OA
ATOM     16  O   UNL     1      19.811  -0.643  53.480  0.00  0.00    +0.000 OA
BRANCH  14  17
ATOM     17  N   UNL     1      20.564   1.738  53.216  0.00  0.00    +0.000 N 
ATOM     18  H   UNL     1      20.526   2.025  54.157  0.00  0.00    +0.000 HD
BRANCH  17  19
ATOM     19  C   UNL     1      20.356   2.690  52.207  0.00  0.00    +0.000 A 
ATOM     20  C   UNL     1      19.126   2.881  51.584  0.00  0.00    +0.000 A 
ATOM     21  N   UNL     1      18.863   3.954  50.789  0.00  0.00    +0.000 NA
ATOM     22  C   UNL     1      19.892   4.816  50.641  0.00  0.00    +0.000 A 
ATOM     23 CL   UNL     1      19.562   6.216  49.712  0.00  0.00    +0.000 Cl
ATOM     24  C   UNL     1      21.123   4.617  51.251  0.00  0.00    +0.000 A 
ATOM     25  N   UNL     1      21.380   3.556  52.066  0.00  0.00    +0.000 NA
ENDBRANCH  17  19
ENDBRANCH  14  17
ENDBRANCH   6  14
TORSDOF 4
ENDMDL
MODEL 4
REMARK VINA RESULT:    -7.573      3.993      4.909
REMARK INTER + INTRA:          -9.688
REMARK INTER:                  -9.405
REMARK INTRA:                  -0.284
REMARK UNBOUND:                -0.345
REMARK  Name = 
REMARK  6 active torsions:
REMARK  status: ('A' for Active; 'I' for Inactive)
REMARK    1  A    between atoms: C_1  and  N_2
REMARK    2  A    between atoms: N_2  and  C_3
REMARK    3  A    between atoms: N_2  and  C_4
REMARK    4  A    between atoms: C_9  and  S_10
REMARK    5  A    between atoms: S_10  and  N_13
REMARK    6  A    between atoms: N_13  and  C_14
REMARK                            x       y       z     vdW  Elec       q    Type
REMARK                         _______ _______ _______ _____ _____    ______ ____
ROOT
ATOM      1  C   UNL     1      26.830   0.267  53.200  0.00  0.00    +0.000 A 
ATOM      2  C   UNL     1      27.096   1.217  52.193  0.00  0.00    +0.000 A 
ATOM      3  C   UNL     1      26.091   1.962  51.595  0.00  0.00    +0.000 A 
ATOM      4  C   UNL     1      24.767   1.684  51.886  0.00  0.00    +0.000 A 
ATOM      5  C   UNL     1      24.399   0.653  52.776  0.00  0.00    +0.000 A 
ATOM      6  C   UNL     1      23.045   0.269  53.008  0.00  0.00    +0.000 A 
ATOM      7  C   UNL     1      22.703  -0.569  54.074  0.00  0.00    +0.000 A 
ATOM      8  C   UNL     1      23.698  -1.071  54.892  0.00  0.00    +0.000 A 
ATOM      9  C   UNL     1      25.037  -0.797  54.604  0.00  0.00    +0.000 A 
ATOM     10  C   UNL     1      25.445   0.014  53.519  0.00  0.00    +0.000 A 
ENDROOT
BRANCH   1  12
ATOM     11  C   UNL     1      28.715   0.536  54.762  0.00  0.00    +0.000 C 
ATOM     12  N   UNL     1      27.911  -0.329  53.894  0.00  0.00    +0.000 N 
ATOM     13  C   UNL     1      28.672  -1.393  53.229  0.00  0.00    +0.000 C 
ENDBRANCH   1  12
BRANCH   6  14
ATOM     14  S   UNL     1      21.699   0.822  51.966  0.00  0.00    +0.000 S 
ATOM     15  O   UNL     1      22.219   1.076  50.640  0.00  0.00    +0.000 OA
ATOM     16  O   UNL     1      20.591  -0.096  52.143  0.00  0.00    +0.000 OA
BRANCH  14  17
ATOM     17  N   UNL     1      21.225   2.291  52.600  0.00  0.00    +0.000 N 
ATOM     18  H   UNL     1      20.818   2.313  53.496  0.00  0.00    +0.000 HD
BRANCH  17  19
ATOM     19  C   UNL     1      21.388   3.495  51.899  0.00  0.00    +0.000 A 
ATOM     20  C   UNL     1      20.403   4.035  51.077  0.00  0.00    +0.000 A 
ATOM     21  N   UNL     1      20.462   5.307  50.596  0.00  0.00    +0.000 NA
ATOM     22  C   UNL     1      21.557   6.003  50.968  0.00  0.00    +0.000 A 
ATOM     23 CL   UNL     1      21.617   7.632  50.442  0.00  0.00    +0.000 Cl
ATOM     24  C   UNL     1      22.547   5.458  51.775  0.00  0.00    +0.000 A 
ATOM     25  N   UNL     1      22.477   4.194  52.276  0.00  0.00    +0.000 NA
ENDBRANCH  17  19
ENDBRANCH  14  17
ENDBRANCH   6  14
TORSDOF 4
ENDMDL
MODEL 5
REMARK VINA RESULT:    -7.443      3.856      8.064
REMARK INTER + INTRA:          -9.528
REMARK INTER:                  -9.572
REMARK INTRA:                   0.043
REMARK UNBOUND:                -0.345
REMARK  Name = 
REMARK  6 active torsions:
REMARK  status: ('A' for Active; 'I' for Inactive)
REMARK    1  A    between atoms: C_1  and  N_2
REMARK    2  A    between atoms: N_2  and  C_3
REMARK    3  A    between atoms: N_2  and  C_4
REMARK    4  A    between atoms: C_9  and  S_10
REMARK    5  A    between atoms: S_10  and  N_13
REMARK    6  A    between atoms: N_13  and  C_14
REMARK                            x       y       z     vdW  Elec       q    Type
REMARK                         _______ _______ _______ _____ _____    ______ ____
ROOT
ATOM      1  C   UNL     1      18.847  -0.342  52.542  0.00  0.00    +0.000 A 
ATOM      2  C   UNL     1      18.627   0.372  51.347  0.00  0.00    +0.000 A 
ATOM      3  C   UNL     1      19.659   0.980  50.648  0.00  0.00    +0.000 A 
ATOM      4  C   UNL     1      20.930   1.013  51.196  0.00  0.00    +0.000 A 
ATOM      5  C   UNL     1      21.214   0.448  52.457  0.00  0.00    +0.000 A 
ATOM      6  C   UNL     1      22.484   0.566  53.096  0.00  0.00    +0.000 A 
ATOM      7  C   UNL     1      22.808  -0.213  54.210  0.00  0.00    +0.000 A 
ATOM      8  C   UNL     1      21.866  -1.082  54.731  0.00  0.00    +0.000 A 
ATOM      9  C   UNL     1      20.581  -1.120  54.186  0.00  0.00    +0.000 A 
ATOM     10  C   UNL     1      20.185  -0.329  53.082  0.00  0.00    +0.000 A 
ENDROOT
BRANCH   1  12
ATOM     11  C   UNL     1      18.015  -2.517  53.345  0.00  0.00    +0.000 C 
ATOM     12  N   UNL     1      17.785  -1.088  53.110  0.00  0.00    +0.000 N 
ATOM     13  C   UNL     1      16.408  -0.752  52.729  0.00  0.00    +0.000 C 
ENDBRANCH   1  12
BRANCH   6  14
ATOM     14  S   UNL     1      23.742   1.706  52.529  0.00  0.00    +0.000 S 
ATOM     15  O   UNL     1      24.335   1.171  51.323  0.00  0.00    +0.000 OA
ATOM     16  O   UNL     1      23.169   3.037  52.523  0.00  0.00    +0.000 OA
BRANCH  14  17
ATOM     17  N   UNL     1      24.921   1.685  53.710  0.00  0.00    +0.000 N 
ATOM     18  H   UNL     1      24.713   2.061  54.595  0.00  0.00    +0.000 HD
BRANCH  17  19
ATOM     19  C   UNL     1      26.196   1.148  53.483  0.00  0.00    +0.000 A 
ATOM     20  C   UNL     1      27.342   1.932  53.373  0.00  0.00    +0.000 A 
ATOM     21  N   UNL     1      28.597   1.407  53.396  0.00  0.00    +0.000 NA
ATOM     22  C   UNL     1      28.648   0.064  53.525  0.00  0.00    +0.000 A 
ATOM     23 CL   UNL     1      30.217  -0.613  53.639  0.00  0.00    +0.000 Cl
ATOM     24  C   UNL     1      27.505  -0.718  53.620  0.00  0.00    +0.000 A 
ATOM     25  N   UNL     1      26.249  -0.192  53.620  0.00  0.00    +0.000 NA
ENDBRANCH  17  19
ENDBRANCH  14  17
ENDBRANCH   6  14
TORSDOF 4
ENDMDL
MODEL 6
REMARK VINA RESULT:    -7.357      2.011      3.561
REMARK INTER + INTRA:          -9.422
REMARK INTER:                  -9.288
REMARK INTRA:                  -0.134
REMARK UNBOUND:                -0.345
REMARK  Name = 
REMARK  6 active torsions:
REMARK  status: ('A' for Active; 'I' for Inactive)
REMARK    1  A    between atoms: C_1  and  N_2
REMARK    2  A    between atoms: N_2  and  C_3
REMARK    3  A    between atoms: N_2  and  C_4
REMARK    4  A    between atoms: C_9  and  S_10
REMARK    5  A    between atoms: S_10  and  N_13
REMARK    6  A    between atoms: N_13  and  C_14
REMARK                            x       y       z     vdW  Elec       q    Type
REMARK                         _______ _______ _______ _____ _____    ______ ____
ROOT
ATOM      1  C   UNL     1      26.930   0.819  53.304  0.00  0.00    +0.000 A 
ATOM      2  C   UNL     1      26.186  -0.034  54.144  0.00  0.00    +0.000 A 
ATOM      3  C   UNL     1      24.834  -0.272  53.948  0.00  0.00    +0.000 A 
ATOM      4  C   UNL     1      24.146   0.445  52.984  0.00  0.00    +0.000 A 
ATOM      5  C   UNL     1      24.778   1.424  52.190  0.00  0.00    +0.000 A 
ATOM      6  C   UNL     1      24.074   2.256  51.270  0.00  0.00    +0.000 A 
ATOM      7  C   UNL     1      24.755   3.028  50.324  0.00  0.00    +0.000 A 
ATOM      8  C   UNL     1      26.138   3.019  50.306  0.00  0.00    +0.000 A 
ATOM      9  C   UNL     1      26.840   2.301  51.276  0.00  0.00    +0.000 A 
ATOM     10  C   UNL     1      26.205   1.532  52.280  0.00  0.00    +0.000 A 
ENDROOT
BRANCH   1  12
ATOM     11  C   UNL     1      29.033  -0.358  53.812  0.00  0.00    +0.000 C 
ATOM     12  N   UNL     1      28.338   0.880  53.448  0.00  0.00    +0.000 N 
ATOM     13  C   UNL     1      28.934   2.096  54.011  0.00  0.00    +0.000 C 
ENDBRANCH   1  12
BRANCH   6  14
ATOM     14  S   UNL     1      22.288   2.377  51.259  0.00  0.00    +0.000 S 
ATOM     15  O   UNL     1      21.858   2.930  52.524  0.00  0.00    +0.000 OA
ATOM     16  O   UNL     1      21.891   3.014  50.020  0.00  0.00    +0.000 OA
BRANCH  14  17
ATOM     17  N   UNL     1      21.741   0.801  51.197  0.00  0.00    +0.000 N 
ATOM     18  H   UNL     1      22.325   0.109  50.812  0.00  0.00    +0.000 HD
BRANCH  17  19
ATOM     19  C   UNL     1      20.476   0.430  51.677  0.00  0.00    +0.000 A 
ATOM     20  C   UNL     1      19.327   0.457  50.891  0.00  0.00    +0.000 A 
ATOM     21  N   UNL     1      18.159  -0.126  51.275  0.00  0.00    +0.000 NA
ATOM     22  C   UNL     1      18.196  -0.726  52.484  0.00  0.00    +0.000 A 
ATOM     23 CL   UNL     1      16.763  -1.537  52.956  0.00  0.00    +0.000 Cl
ATOM     24  C   UNL     1      19.337  -0.739  53.274  0.00  0.00    +0.000 A 
ATOM     25  N   UNL     1      20.513  -0.176  52.880  0.00  0.00    +0.000 NA
ENDBRANCH  17  19
ENDBRANCH  14  17
ENDBRANCH   6  14
TORSDOF 4
ENDMDL
MODEL 7
REMARK VINA RESULT:    -7.304      2.041      2.313
REMARK INTER + INTRA:          -9.357
REMARK INTER:                  -8.896
REMARK INTRA:                  -0.461
REMARK UNBOUND:                -0.345
REMARK  Name = 
REMARK  6 active torsions:
REMARK  status: ('A' for Active; 'I' for Inactive)
REMARK    1  A    between atoms: C_1  and  N_2
REMARK    2  A    between atoms: N_2  and  C_3
REMARK    3  A    between atoms: N_2  and  C_4
REMARK    4  A    between atoms: C_9  and  S_10
REMARK    5  A    between atoms: S_10  and  N_13
REMARK    6  A    between atoms: N_13  and  C_14
REMARK                            x       y       z     vdW  Elec       q    Type
REMARK                         _______ _______ _______ _____ _____    ______ ____
ROOT
ATOM      1  C   UNL     1      26.110   0.134  52.542  0.00  0.00    +0.000 A 
ATOM      2  C   UNL     1      26.674   1.157  51.753  0.00  0.00    +0.000 A 
ATOM      3  C   UNL     1      25.981   2.318  51.443  0.00  0.00    +0.000 A 
ATOM      4  C   UNL     1      24.647   2.434  51.796  0.00  0.00    +0.000 A 
ATOM      5  C   UNL     1      23.959   1.399  52.463  0.00  0.00    +0.000 A 
ATOM      6  C   UNL     1      22.560   1.444  52.738  0.00  0.00    +0.000 A 
ATOM      7  C   UNL     1      21.966   0.533  53.616  0.00  0.00    +0.000 A 
ATOM      8  C   UNL     1      22.738  -0.457  54.195  0.00  0.00    +0.000 A 
ATOM      9  C   UNL     1      24.083  -0.583  53.843  0.00  0.00    +0.000 A 
ATOM     10  C   UNL     1      24.730   0.286  52.933  0.00  0.00    +0.000 A 
ENDROOT
BRANCH   1  12
ATOM     11  C   UNL     1      28.274  -0.614  53.452  0.00  0.00    +0.000 C 
ATOM     12  N   UNL     1      26.928  -0.941  52.971  0.00  0.00    +0.000 N 
ATOM     13  C   UNL     1      26.834  -2.222  52.262  0.00  0.00    +0.000 C 
ENDBRANCH   1  12
BRANCH   6  14
ATOM     14  S   UNL     1      21.473   2.652  51.989  0.00  0.00    +0.000 S 
ATOM     15  O   UNL     1      21.826   3.962  52.491  0.00  0.00    +0.000 OA
ATOM     16  O   UNL     1      21.452   2.409  50.560  0.00  0.00    +0.000 OA
BRANCH  14  17
ATOM     17  N   UNL     1      19.950   2.295  52.570  0.00  0.00    +0.000 N 
ATOM     18  H   UNL     1      19.724   2.543  53.496  0.00  0.00    +0.000 HD
BRANCH  17  19
ATOM     19  C   UNL     1      18.981   1.655  51.785  0.00  0.00    +0.000 A 
ATOM     20  C   UNL     1      18.917   0.272  51.634  0.00  0.00    +0.000 A 
ATOM     21  N   UNL     1      17.847  -0.359  51.079  0.00  0.00    +0.000 NA
ATOM     22  C   UNL     1      16.853   0.460  50.674  0.00  0.00    +0.000 A 
ATOM     23 CL   UNL     1      15.461  -0.314  50.046  0.00  0.00    +0.000 Cl
ATOM     24  C   UNL     1      16.924   1.839  50.811  0.00  0.00    +0.000 A 
ATOM     25  N   UNL     1      17.984   2.470  51.388  0.00  0.00    +0.000 NA
ENDBRANCH  17  19
ENDBRANCH  14  17
ENDBRANCH   6  14
TORSDOF 4
ENDMDL
MODEL 8
REMARK VINA RESULT:    -7.186      5.418      7.468
REMARK INTER + INTRA:          -9.211
REMARK INTER:                  -8.722
REMARK INTRA:                  -0.489
REMARK UNBOUND:                -0.345
REMARK  Name = 
REMARK  6 active torsions:
REMARK  status: ('A' for Active; 'I' for Inactive)
REMARK    1  A    between atoms: C_1  and  N_2
REMARK    2  A    between atoms: N_2  and  C_3
REMARK    3  A    between atoms: N_2  and  C_4
REMARK    4  A    between atoms: C_9  and  S_10
REMARK    5  A    between atoms: S_10  and  N_13
REMARK    6  A    between atoms: N_13  and  C_14
REMARK                            x       y       z     vdW  Elec       q    Type
REMARK                         _______ _______ _______ _____ _____    ______ ____
ROOT
ATOM      1  C   UNL     1      26.127   7.645  49.210  0.00  0.00    +0.000 A 
ATOM      2  C   UNL     1      25.208   8.494  49.860  0.00  0.00    +0.000 A 
ATOM      3  C   UNL     1      24.285   8.019  50.779  0.00  0.00    +0.000 A 
ATOM      4  C   UNL     1      24.156   6.655  50.977  0.00  0.00    +0.000 A 
ATOM      5  C   UNL     1      24.936   5.720  50.265  0.00  0.00    +0.000 A 
ATOM      6  C   UNL     1      24.748   4.310  50.365  0.00  0.00    +0.000 A 
ATOM      7  C   UNL     1      25.692   3.416  49.854  0.00  0.00    +0.000 A 
ATOM      8  C   UNL     1      26.809   3.904  49.200  0.00  0.00    +0.000 A 
ATOM      9  C   UNL     1      26.945   5.279  48.993  0.00  0.00    +0.000 A 
ATOM     10  C   UNL     1      26.004   6.228  49.456  0.00  0.00    +0.000 A 
ENDROOT
BRANCH   1  12
ATOM     11  C   UNL     1      28.260   8.875  49.127  0.00  0.00    +0.000 C 
ATOM     12  N   UNL     1      27.158   8.213  48.422  0.00  0.00    +0.000 N 
ATOM     13  C   UNL     1      26.803   8.831  47.139  0.00  0.00    +0.000 C 
ENDBRANCH   1  12
BRANCH   6  14
ATOM     14  S   UNL     1      23.306   3.587  51.141  0.00  0.00    +0.000 S 
ATOM     15  O   UNL     1      23.428   3.744  52.574  0.00  0.00    +0.000 OA
ATOM     16  O   UNL     1      22.131   4.091  50.458  0.00  0.00    +0.000 OA
BRANCH  14  17
ATOM     17  N   UNL     1      23.401   1.954  50.813  0.00  0.00    +0.000 N 
ATOM     18  H   UNL     1      23.500   1.661  49.879  0.00  0.00    +0.000 HD
BRANCH  17  19
ATOM     19  C   UNL     1      23.347   0.984  51.825  0.00  0.00    +0.000 A 
ATOM     20  C   UNL     1      24.455   0.612  52.582  0.00  0.00    +0.000 A 
ATOM     21  N   UNL     1      24.355  -0.141  53.711  0.00  0.00    +0.000 NA
ATOM     22  C   UNL     1      23.098  -0.510  54.037  0.00  0.00    +0.000 A 
ATOM     23 CL   UNL     1      22.936  -1.389  55.497  0.00  0.00    +0.000 Cl
ATOM     24  C   UNL     1      21.996  -0.153  53.273  0.00  0.00    +0.000 A 
ATOM     25  N   UNL     1      22.092   0.620  52.155  0.00  0.00    +0.000 NA
ENDBRANCH  17  19
ENDBRANCH  14  17
ENDBRANCH   6  14
TORSDOF 4
ENDMDL
MODEL 9
REMARK VINA RESULT:    -7.048      5.085      6.640
REMARK INTER + INTRA:          -9.041
REMARK INTER:                  -8.606
REMARK INTRA:                  -0.435
REMARK UNBOUND:                -0.345
REMARK  Name = 
REMARK  6 active torsions:
REMARK  status: ('A' for Active; 'I' for Inactive)
REMARK    1  A    between atoms: C_1  and  N_2
REMARK    2  A    between atoms: N_2  and  C_3
REMARK    3  A    between atoms: N_2  and  C_4
REMARK    4  A    between atoms: C_9  and  S_10
REMARK    5  A    between atoms: S_10  and  N_13
REMARK    6  A    between atoms: N_13  and  C_14
REMARK                            x       y       z     vdW  Elec       q    Type
REMARK                         _______ _______ _______ _____ _____    ______ ____
ROOT
ATOM      1  C   UNL     1      25.765   0.259  53.098  0.00  0.00    +0.000 A 
ATOM      2  C   UNL     1      24.643  -0.330  53.715  0.00  0.00    +0.000 A 
ATOM      3  C   UNL     1      23.344  -0.019  53.341  0.00  0.00    +0.000 A 
ATOM      4  C   UNL     1      23.120   0.997  52.428  0.00  0.00    +0.000 A 
ATOM      5  C   UNL     1      24.178   1.739  51.863  0.00  0.00    +0.000 A 
ATOM      6  C   UNL     1      23.973   2.863  51.009  0.00  0.00    +0.000 A 
ATOM      7  C   UNL     1      25.024   3.411  50.269  0.00  0.00    +0.000 A 
ATOM      8  C   UNL     1      26.296   2.883  50.398  0.00  0.00    +0.000 A 
ATOM      9  C   UNL     1      26.532   1.860  51.319  0.00  0.00    +0.000 A 
ATOM     10  C   UNL     1      25.515   1.291  52.121  0.00  0.00    +0.000 A 
ENDROOT
BRANCH   1  12
ATOM     11  C   UNL     1      27.406  -1.569  52.910  0.00  0.00    +0.000 C 
ATOM     12  N   UNL     1      27.060  -0.231  53.400  0.00  0.00    +0.000 N 
ATOM     13  C   UNL     1      27.656   0.112  54.696  0.00  0.00    +0.000 C 
ENDBRANCH   1  12
BRANCH   6  14
ATOM     14  S   UNL     1      22.375   3.649  50.824  0.00  0.00    +0.000 S 
ATOM     15  O   UNL     1      21.447   2.680  50.283  0.00  0.00    +0.000 OA
ATOM     16  O   UNL     1      22.066   4.330  52.065  0.00  0.00    +0.000 OA
BRANCH  14  17
ATOM     17  N   UNL     1      22.595   4.825  49.660  0.00  0.00    +0.000 N 
ATOM     18  H   UNL     1      23.333   4.725  49.017  0.00  0.00    +0.000 HD
BRANCH  17  19
ATOM     19  C   UNL     1      21.763   5.950  49.568  0.00  0.00    +0.000 A 
ATOM     20  C   UNL     1      20.378   5.864  49.447  0.00  0.00    +0.000 A 
ATOM     21  N   UNL     1      19.558   6.939  49.600  0.00  0.00    +0.000 NA
ATOM     22  C   UNL     1      20.190   8.101  49.869  0.00  0.00    +0.000 A 
ATOM     23 CL   UNL     1      19.176   9.452  50.147  0.00  0.00    +0.000 Cl
ATOM     24  C   UNL     1      21.572   8.189  49.975  0.00  0.00    +0.000 A 
ATOM     25  N   UNL     1      22.392   7.110  49.844  0.00  0.00    +0.000 NA
ENDBRANCH  17  19
ENDBRANCH  14  17
ENDBRANCH   6  14
TORSDOF 4
ENDMDL
