MODEL 1
REMARK VINA RESULT:    -6.853      0.000      0.000
REMARK INTER + INTRA:         -10.156
REMARK INTER:                  -9.256
REMARK INTRA:                  -0.900
REMARK UNBOUND:                -0.900
REMARK  Name = 
REMARK  7 active torsions:
REMARK  status: ('A' for Active; 'I' for Inactive)
REMARK    1  A    between atoms: C_1  and  C_2
REMARK    2  A    between atoms: C_5  and  S_6
REMARK    3  A    between atoms: S_6  and  C_7
REMARK    4  A    between atoms: C_13  and  C_14
REMARK    5  A    between atoms: N_15  and  O_16
REMARK    6  A    between atoms: O_16  and  C_17
REMARK    7  A    between atoms: C_17  and  C_18
REMARK                            x       y       z     vdW  Elec       q    Type
REMARK                         _______ _______ _______ _____ _____    ______ ____
ROOT
ATOM      1  C   UNL     1      20.892   0.438  51.281  0.00  0.00    +0.000 A 
ATOM      2  C   UNL     1      19.540   0.208  51.513  0.00  0.00    +0.000 A 
ATOM      3  N   UNL     1      19.038  -0.341  52.638  0.00  0.00    +0.000 NA
ATOM      4  C   UNL     1      19.891  -0.686  53.626  0.00  0.00    +0.000 A 
ATOM      5  C   UNL     1      21.266  -0.488  53.469  0.00  0.00    +0.000 A 
ATOM      6  S   UNL     1      22.489  -0.861  54.615  0.00  0.00    +0.000 S 
ATOM      7  C   UNL     1      23.739  -0.332  53.586  0.00  0.00    +0.000 A 
ATOM      8  C   UNL     1      23.240   0.140  52.390  0.00  0.00    +0.000 A 
ATOM      9  C   UNL     1      21.800   0.068  52.301  0.00  0.00    +0.000 A 
ENDROOT
BRANCH   7  10
ATOM     10  C   UNL     1      25.117  -0.407  54.004  0.00  0.00    +0.000 C 
ATOM     11  N   UNL     1      26.061  -0.643  53.151  0.00  0.00    +0.000 NA
BRANCH  11  12
ATOM     12  O   UNL     1      27.299  -0.705  53.807  0.00  0.00    +0.000 OA
BRANCH  12  13
ATOM     13  C   UNL     1      27.482   0.530  54.495  0.00  0.00    +0.000 C 
BRANCH  13  14
ATOM     14  C   UNL     1      28.636   1.314  53.919  0.00  0.00    +0.000 C 
ATOM     15  O   UNL     1      28.690   2.511  53.687  0.00  0.00    +0.000 OA
ATOM     16  O   UNL     1      29.705   0.527  53.652  0.00  0.00    +0.000 OA
ENDBRANCH  13  14
ENDBRANCH  12  13
ENDBRANCH  11  12
ENDBRANCH   7  10
BRANCH   1  17
ATOM     17  S   UNL     1      21.467   1.197  49.795  0.00  0.00    +0.000 S 
BRANCH  17  22
ATOM     18  C   UNL     1      24.134   6.471  51.341  0.00  0.00    +0.000 C 
ATOM     19  C   UNL     1      23.460   5.178  50.994  0.00  0.00    +0.000 A 
ATOM     20  C   UNL     1      22.278   4.788  51.632  0.00  0.00    +0.000 A 
ATOM     21  C   UNL     1      21.651   3.583  51.299  0.00  0.00    +0.000 A 
ATOM     22  C   UNL     1      22.189   2.746  50.316  0.00  0.00    +0.000 A 
ATOM     23  C   UNL     1      23.377   3.138  49.685  0.00  0.00    +0.000 A 
ATOM     24  C   UNL     1      24.008   4.339  50.020  0.00  0.00    +0.000 A 
ENDBRANCH  17  22
ENDBRANCH   1  17
TORSDOF 6
ENDMDL
MODEL 2
REMARK VINA RESULT:    -6.835      4.649      8.040
REMARK INTER + INTRA:         -10.132
REMARK INTER:                  -9.691
REMARK INTRA:                  -0.441
REMARK UNBOUND:                -0.900
REMARK  Name = 
REMARK  7 active torsions:
REMARK  status: ('A' for Active; 'I' for Inactive)
REMARK    1  A    between atoms: C_1  and  C_2
REMARK    2  A    between atoms: C_5  and  S_6
REMARK    3  A    between atoms: S_6  and  C_7
REMARK    4  A    between atoms: C_13  and  C_14
REMARK    5  A    between atoms: N_15  and  O_16
REMARK    6  A    between atoms: O_16  and  C_17
REMARK    7  A    between atoms: C_17  and  C_18
REMARK                            x       y       z     vdW  Elec       q    Type
REMARK                         _______ _______ _______ _____ _____    ______ ____
ROOT
ATOM      1  C   UNL     1      23.628   0.692  52.509  0.00  0.00    +0.000 A 
ATOM      2  C   UNL     1      24.564   1.525  51.906  0.00  0.00    +0.000 A 
ATOM      3  N   UNL     1      24.290   2.390  50.908  0.00  0.00    +0.000 NA
ATOM      4  C   UNL     1      23.019   2.478  50.459  0.00  0.00    +0.000 A 
ATOM      5  C   UNL     1      22.021   1.673  51.013  0.00  0.00    +0.000 A 
ATOM      6  S   UNL     1      20.361   1.654  50.571  0.00  0.00    +0.000 S 
ATOM      7  C   UNL     1      19.985   0.429  51.693  0.00  0.00    +0.000 A 
ATOM      8  C   UNL     1      21.097   0.045  52.411  0.00  0.00    +0.000 A 
ATOM      9  C   UNL     1      22.295   0.762  52.039  0.00  0.00    +0.000 A 
ENDROOT
BRANCH   7  10
ATOM     10  C   UNL     1      18.638  -0.077  51.804  0.00  0.00    +0.000 C 
ATOM     11  N   UNL     1      18.250  -0.713  52.862  0.00  0.00    +0.000 NA
BRANCH  11  12
ATOM     12  O   UNL     1      16.920  -1.133  52.711  0.00  0.00    +0.000 OA
BRANCH  12  13
ATOM     13  C   UNL     1      16.257  -0.171  51.895  0.00  0.00    +0.000 C 
BRANCH  13  14
ATOM     14  C   UNL     1      15.172   0.546  52.662  0.00  0.00    +0.000 C 
ATOM     15  O   UNL     1      14.297   0.058  53.359  0.00  0.00    +0.000 OA
ATOM     16  O   UNL     1      15.241   1.888  52.510  0.00  0.00    +0.000 OA
ENDBRANCH  13  14
ENDBRANCH  12  13
ENDBRANCH  11  12
ENDBRANCH   7  10
BRANCH   1  17
ATOM     17  S   UNL     1      24.058  -0.387  53.837  0.00  0.00    +0.000 S 
BRANCH  17  22
ATOM     18  C   UNL     1      30.156  -0.666  53.600  0.00  0.00    +0.000 C 
ATOM     19  C   UNL     1      28.662  -0.583  53.694  0.00  0.00    +0.000 A 
ATOM     20  C   UNL     1      28.045   0.232  54.647  0.00  0.00    +0.000 A 
ATOM     21  C   UNL     1      26.650   0.309  54.725  0.00  0.00    +0.000 A 
ATOM     22  C   UNL     1      25.845  -0.422  53.845  0.00  0.00    +0.000 A 
ATOM     23  C   UNL     1      26.469  -1.243  52.896  0.00  0.00    +0.000 A 
ATOM     24  C   UNL     1      27.862  -1.325  52.821  0.00  0.00    +0.000 A 
ENDBRANCH  17  22
ENDBRANCH   1  17
TORSDOF 6
ENDMDL
MODEL 3
REMARK VINA RESULT:    -6.669      5.072      7.788
REMARK INTER + INTRA:          -9.908
REMARK INTER:                  -9.506
REMARK INTRA:                  -0.402
REMARK UNBOUND:                -0.900
REMARK  Name = 
REMARK  7 active torsions:
REMARK  status: ('A' for Active; 'I' for Inactive)
REMARK    1  A    between atoms: C_1  and  C_2
REMARK    2  A    between atoms: C_5  and  S_6
REMARK    3  A    between atoms: S_6  and  C_7
REMARK    4  A    between atoms: C_13  and  C_14
REMARK    5  A    between atoms: N_15  and  O_16
REMARK    6  A    between atoms: O_16  and  C_17
REMARK    7  A    between atoms: C_17  and  C_18
REMARK                            x       y       z     vdW  Elec       q    Type
REMARK                         _______ _______ _______ _____ _____    ______ ____
ROOT
ATOM      1  C   UNL     1      23.274   0.211  53.365  0.00  0.00    +0.000 A 
ATOM      2  C   UNL     1      23.663  -0.713  54.328  0.00  0.00    +0.000 A 
ATOM      3  N   UNL     1      22.819  -1.530  54.991  0.00  0.00    +0.000 NA
ATOM      4  C   UNL     1      21.501  -1.471  54.703  0.00  0.00    +0.000 A 
ATOM      5  C   UNL     1      21.031  -0.566  53.747  0.00  0.00    +0.000 A 
ATOM      6  S   UNL     1      19.399  -0.357  53.255  0.00  0.00    +0.000 S 
ATOM      7  C   UNL     1      19.795   0.888  52.163  0.00  0.00    +0.000 A 
ATOM      8  C   UNL     1      21.150   1.137  52.153  0.00  0.00    +0.000 A 
ATOM      9  C   UNL     1      21.894   0.296  53.062  0.00  0.00    +0.000 A 
ENDROOT
BRANCH   7  10
ATOM     10  C   UNL     1      18.767   1.539  51.387  0.00  0.00    +0.000 C 
ATOM     11  N   UNL     1      18.414   2.759  51.639  0.00  0.00    +0.000 NA
BRANCH  11  12
ATOM     12  O   UNL     1      17.378   3.148  50.777  0.00  0.00    +0.000 OA
BRANCH  12  13
ATOM     13  C   UNL     1      16.690   4.232  51.395  0.00  0.00    +0.000 C 
BRANCH  13  14
ATOM     14  C   UNL     1      15.621   3.738  52.339  0.00  0.00    +0.000 C 
ATOM     15  O   UNL     1      15.257   4.238  53.392  0.00  0.00    +0.000 OA
ATOM     16  O   UNL     1      15.041   2.597  51.901  0.00  0.00    +0.000 OA
ENDBRANCH  13  14
ENDBRANCH  12  13
ENDBRANCH  11  12
ENDBRANCH   7  10
BRANCH   1  17
ATOM     17  S   UNL     1      24.446   1.220  52.513  0.00  0.00    +0.000 S 
BRANCH  17  22
ATOM     18  C   UNL     1      29.880  -1.216  53.872  0.00  0.00    +0.000 C 
ATOM     19  C   UNL     1      28.548  -0.597  53.571  0.00  0.00    +0.000 A 
ATOM     20  C   UNL     1      28.146   0.587  54.196  0.00  0.00    +0.000 A 
ATOM     21  C   UNL     1      26.905   1.161  53.905  0.00  0.00    +0.000 A 
ATOM     22  C   UNL     1      26.042   0.567  52.977  0.00  0.00    +0.000 A 
ATOM     23  C   UNL     1      26.448  -0.622  52.358  0.00  0.00    +0.000 A 
ATOM     24  C   UNL     1      27.686  -1.201  52.652  0.00  0.00    +0.000 A 
ENDBRANCH  17  22
ENDBRANCH   1  17
TORSDOF 6
ENDMDL
MODEL 4
REMARK VINA RESULT:    -6.666      4.205      6.591
REMARK INTER + INTRA:          -9.904
REMARK INTER:                  -9.262
REMARK INTRA:                  -0.642
REMARK UNBOUND:                -0.900
REMARK  Name = 
REMARK  7 active torsions:
REMARK  status: ('A' for Active; 'I' for Inactive)
REMARK    1  A    between atoms: C_1  and  C_2
REMARK    2  A    between atoms: C_5  and  S_6
REMARK    3  A    between atoms: S_6  and  C_7
REMARK    4  A    between atoms: C_13  and  C_14
REMARK    5  A    between atoms: N_15  and  O_16
REMARK    6  A    between atoms: O_16  and  C_17
REMARK    7  A    between atoms: C_17  and  C_18
REMARK                            x       y       z     vdW  Elec       q    Type
REMARK                         _______ _______ _______ _____ _____    ______ ____
ROOT
ATOM      1  C   UNL     1      22.566   3.715  50.224  0.00  0.00    +0.000 A 
ATOM      2  C   UNL     1      21.580   4.483  50.834  0.00  0.00    +0.000 A 
ATOM      3  N   UNL     1      21.733   5.769  51.211  0.00  0.00    +0.000 NA
ATOM      4  C   UNL     1      22.917   6.375  50.975  0.00  0.00    +0.000 A 
ATOM      5  C   UNL     1      23.959   5.670  50.367  0.00  0.00    +0.000 A 
ATOM      6  S   UNL     1      25.520   6.278  49.990  0.00  0.00    +0.000 S 
ATOM      7  C   UNL     1      26.043   4.789  49.350  0.00  0.00    +0.000 A 
ATOM      8  C   UNL     1      25.044   3.840  49.403  0.00  0.00    +0.000 A 
ATOM      9  C   UNL     1      23.816   4.332  49.984  0.00  0.00    +0.000 A 
ENDROOT
BRANCH   7  10
ATOM     10  C   UNL     1      27.383   4.639  48.839  0.00  0.00    +0.000 C 
ATOM     11  N   UNL     1      28.076   5.669  48.471  0.00  0.00    +0.000 NA
BRANCH  11  12
ATOM     12  O   UNL     1      29.324   5.259  47.979  0.00  0.00    +0.000 OA
BRANCH  12  13
ATOM     13  C   UNL     1      30.089   6.433  47.720  0.00  0.00    +0.000 C 
BRANCH  13  14
ATOM     14  C   UNL     1      30.965   6.789  48.896  0.00  0.00    +0.000 C 
ATOM     15  O   UNL     1      31.735   6.065  49.507  0.00  0.00    +0.000 OA
ATOM     16  O   UNL     1      30.824   8.084  49.264  0.00  0.00    +0.000 OA
ENDBRANCH  13  14
ENDBRANCH  12  13
ENDBRANCH  11  12
ENDBRANCH   7  10
BRANCH   1  17
ATOM     17  S   UNL     1      22.274   2.047  49.726  0.00  0.00    +0.000 S 
BRANCH  17  22
ATOM     18  C   UNL     1      22.392  -1.032  55.000  0.00  0.00    +0.000 C 
ATOM     19  C   UNL     1      22.332  -0.297  53.695  0.00  0.00    +0.000 A 
ATOM     20  C   UNL     1      21.167  -0.295  52.923  0.00  0.00    +0.000 A 
ATOM     21  C   UNL     1      21.116   0.399  51.709  0.00  0.00    +0.000 A 
ATOM     22  C   UNL     1      22.228   1.111  51.247  0.00  0.00    +0.000 A 
ATOM     23  C   UNL     1      23.396   1.100  52.022  0.00  0.00    +0.000 A 
ATOM     24  C   UNL     1      23.449   0.403  53.232  0.00  0.00    +0.000 A 
ENDBRANCH  17  22
ENDBRANCH   1  17
TORSDOF 6
ENDMDL
MODEL 5
REMARK VINA RESULT:    -6.636      4.296      6.708
REMARK INTER + INTRA:          -9.863
REMARK INTER:                  -9.109
REMARK INTRA:                  -0.754
REMARK UNBOUND:                -0.900
REMARK  Name = 
REMARK  7 active torsions:
REMARK  status: ('A' for Active; 'I' for Inactive)
REMARK    1  A    between atoms: C_1  and  C_2
REMARK    2  A    between atoms: C_5  and  S_6
REMARK    3  A    between atoms: S_6  and  C_7
REMARK    4  A    between atoms: C_13  and  C_14
REMARK    5  A    between atoms: N_15  and  O_16
REMARK    6  A    between atoms: O_16  and  C_17
REMARK    7  A    between atoms: C_17  and  C_18
REMARK                            x       y       z     vdW  Elec       q    Type
REMARK                         _______ _______ _______ _____ _____    ______ ____
ROOT
ATOM      1  C   UNL     1      23.503   3.129  51.447  0.00  0.00    +0.000 A 
ATOM      2  C   UNL     1      22.431   3.759  52.069  0.00  0.00    +0.000 A 
ATOM      3  N   UNL     1      22.227   5.092  52.080  0.00  0.00    +0.000 NA
ATOM      4  C   UNL     1      23.108   5.887  51.434  0.00  0.00    +0.000 A 
ATOM      5  C   UNL     1      24.213   5.329  50.786  0.00  0.00    +0.000 A 
ATOM      6  S   UNL     1      25.425   6.182  49.918  0.00  0.00    +0.000 S 
ATOM      7  C   UNL     1      26.287   4.760  49.549  0.00  0.00    +0.000 A 
ATOM      8  C   UNL     1      25.660   3.644  50.061  0.00  0.00    +0.000 A 
ATOM      9  C   UNL     1      24.443   3.949  50.779  0.00  0.00    +0.000 A 
ENDROOT
BRANCH   7  10
ATOM     10  C   UNL     1      27.511   4.818  48.789  0.00  0.00    +0.000 C 
ATOM     11  N   UNL     1      28.055   5.954  48.488  0.00  0.00    +0.000 NA
BRANCH  11  12
ATOM     12  O   UNL     1      29.209   5.746  47.717  0.00  0.00    +0.000 OA
BRANCH  12  13
ATOM     13  C   UNL     1      30.270   6.474  48.328  0.00  0.00    +0.000 C 
BRANCH  13  14
ATOM     14  C   UNL     1      31.454   5.583  48.616  0.00  0.00    +0.000 C 
ATOM     15  O   UNL     1      31.868   4.645  47.954  0.00  0.00    +0.000 OA
ATOM     16  O   UNL     1      32.081   5.925  49.766  0.00  0.00    +0.000 OA
ENDBRANCH  13  14
ENDBRANCH  12  13
ENDBRANCH  11  12
ENDBRANCH   7  10
BRANCH   1  17
ATOM     17  S   UNL     1      23.680   1.372  51.446  0.00  0.00    +0.000 S 
BRANCH  17  22
ATOM     18  C   UNL     1      28.710   0.438  54.783  0.00  0.00    +0.000 C 
ATOM     19  C   UNL     1      27.495   0.655  53.933  0.00  0.00    +0.000 A 
ATOM     20  C   UNL     1      27.374   0.045  52.681  0.00  0.00    +0.000 A 
ATOM     21  C   UNL     1      26.234   0.248  51.896  0.00  0.00    +0.000 A 
ATOM     22  C   UNL     1      25.188   1.058  52.350  0.00  0.00    +0.000 A 
ATOM     23  C   UNL     1      25.318   1.672  53.603  0.00  0.00    +0.000 A 
ATOM     24  C   UNL     1      26.459   1.475  54.386  0.00  0.00    +0.000 A 
ENDBRANCH  17  22
ENDBRANCH   1  17
TORSDOF 6
ENDMDL
MODEL 6
REMARK VINA RESULT:    -6.612      4.296      6.699
REMARK INTER + INTRA:          -9.831
REMARK INTER:                  -9.937
REMARK INTRA:                   0.106
REMARK UNBOUND:                -0.900
REMARK  Name = 
REMARK  7 active torsions:
REMARK  status: ('A' for Active; 'I' for Inactive)
REMARK    1  A    between atoms: C_1  and  C_2
REMARK    2  A    between atoms: C_5  and  S_6
REMARK    3  A    between atoms: S_6  and  C_7
REMARK    4  A    between atoms: C_13  and  C_14
REMARK    5  A    between atoms: N_15  and  O_16
REMARK    6  A    between atoms: O_16  and  C_17
REMARK    7  A    between atoms: C_17  and  C_18
REMARK                            x       y       z     vdW  Elec       q    Type
REMARK                         _______ _______ _______ _____ _____    ______ ____
ROOT
ATOM      1  C   UNL     1      25.427   2.517  51.678  0.00  0.00    +0.000 A 
ATOM      2  C   UNL     1      26.812   2.572  51.784  0.00  0.00    +0.000 A 
ATOM      3  N   UNL     1      27.560   1.723  52.518  0.00  0.00    +0.000 NA
ATOM      4  C   UNL     1      26.938   0.734  53.196  0.00  0.00    +0.000 A 
ATOM      5  C   UNL     1      25.547   0.612  53.142  0.00  0.00    +0.000 A 
ATOM      6  S   UNL     1      24.595  -0.580  53.931  0.00  0.00    +0.000 S 
ATOM      7  C   UNL     1      23.135   0.063  53.333  0.00  0.00    +0.000 A 
ATOM      8  C   UNL     1      23.360   1.160  52.529  0.00  0.00    +0.000 A 
ATOM      9  C   UNL     1      24.759   1.494  52.394  0.00  0.00    +0.000 A 
ENDROOT
BRANCH   7  10
ATOM     10  C   UNL     1      21.871  -0.538  53.682  0.00  0.00    +0.000 C 
ATOM     11  N   UNL     1      20.800  -0.280  53.001  0.00  0.00    +0.000 NA
BRANCH  11  12
ATOM     12  O   UNL     1      19.702  -0.952  53.558  0.00  0.00    +0.000 OA
BRANCH  12  13
ATOM     13  C   UNL     1      18.567  -0.666  52.746  0.00  0.00    +0.000 C 
BRANCH  13  14
ATOM     14  C   UNL     1      17.432  -1.619  53.032  0.00  0.00    +0.000 C 
ATOM     15  O   UNL     1      16.252  -1.489  52.751  0.00  0.00    +0.000 OA
ATOM     16  O   UNL     1      17.851  -2.729  53.684  0.00  0.00    +0.000 OA
ENDBRANCH  13  14
ENDBRANCH  12  13
ENDBRANCH  11  12
ENDBRANCH   7  10
BRANCH   1  17
ATOM     17  S   UNL     1      24.522   3.644  50.665  0.00  0.00    +0.000 S 
BRANCH  17  22
ATOM     18  C   UNL     1      28.645   7.117  47.792  0.00  0.00    +0.000 C 
ATOM     19  C   UNL     1      27.647   6.234  48.479  0.00  0.00    +0.000 A 
ATOM     20  C   UNL     1      27.827   4.848  48.531  0.00  0.00    +0.000 A 
ATOM     21  C   UNL     1      26.895   4.031  49.178  0.00  0.00    +0.000 A 
ATOM     22  C   UNL     1      25.766   4.584  49.794  0.00  0.00    +0.000 A 
ATOM     23  C   UNL     1      25.587   5.972  49.732  0.00  0.00    +0.000 A 
ATOM     24  C   UNL     1      26.515   6.789  49.081  0.00  0.00    +0.000 A 
ENDBRANCH  17  22
ENDBRANCH   1  17
TORSDOF 6
ENDMDL
MODEL 7
REMARK VINA RESULT:    -6.568      4.278      7.777
REMARK INTER + INTRA:          -9.771
REMARK INTER:                  -9.282
REMARK INTRA:                  -0.489
REMARK UNBOUND:                -0.900
REMARK  Name = 
REMARK  7 active torsions:
REMARK  status: ('A' for Active; 'I' for Inactive)
REMARK    1  A    between atoms: C_1  and  C_2
REMARK    2  A    between atoms: C_5  and  S_6
REMARK    3  A    between atoms: S_6  and  C_7
REMARK    4  A    between atoms: C_13  and  C_14
REMARK    5  A    between atoms: N_15  and  O_16
REMARK    6  A    between atoms: O_16  and  C_17
REMARK    7  A    between atoms: C_17  and  C_18
REMARK                            x       y       z     vdW  Elec       q    Type
REMARK                         _______ _______ _______ _____ _____    ______ ____
ROOT
ATOM      1  C   UNL     1      23.748   1.240  52.903  0.00  0.00    +0.000 A 
ATOM      2  C   UNL     1      24.728   2.149  52.519  0.00  0.00    +0.000 A 
ATOM      3  N   UNL     1      24.513   3.219  51.727  0.00  0.00    +0.000 NA
ATOM      4  C   UNL     1      23.261   3.450  51.278  0.00  0.00    +0.000 A 
ATOM      5  C   UNL     1      22.220   2.582  51.619  0.00  0.00    +0.000 A 
ATOM      6  S   UNL     1      20.576   2.721  51.144  0.00  0.00    +0.000 S 
ATOM      7  C   UNL     1      20.126   1.298  51.962  0.00  0.00    +0.000 A 
ATOM      8  C   UNL     1      21.203   0.725  52.606  0.00  0.00    +0.000 A 
ATOM      9  C   UNL     1      22.433   1.460  52.428  0.00  0.00    +0.000 A 
ENDROOT
BRANCH   7  10
ATOM     10  C   UNL     1      18.762   0.830  51.928  0.00  0.00    +0.000 C 
ATOM     11  N   UNL     1      18.460  -0.309  51.392  0.00  0.00    +0.000 NA
BRANCH  11  12
ATOM     12  O   UNL     1      17.074  -0.517  51.450  0.00  0.00    +0.000 OA
BRANCH  12  13
ATOM     13  C   UNL     1      16.743  -0.824  52.801  0.00  0.00    +0.000 C 
BRANCH  13  14
ATOM     14  C   UNL     1      16.996  -2.279  53.112  0.00  0.00    +0.000 C 
ATOM     15  O   UNL     1      16.308  -3.242  52.816  0.00  0.00    +0.000 OA
ATOM     16  O   UNL     1      18.143  -2.460  53.808  0.00  0.00    +0.000 OA
ENDBRANCH  13  14
ENDBRANCH  12  13
ENDBRANCH  11  12
ENDBRANCH   7  10
BRANCH   1  17
ATOM     17  S   UNL     1      24.103  -0.117  53.974  0.00  0.00    +0.000 S 
BRANCH  17  22
ATOM     18  C   UNL     1      30.159  -0.881  53.732  0.00  0.00    +0.000 C 
ATOM     19  C   UNL     1      28.670  -0.704  53.755  0.00  0.00    +0.000 A 
ATOM     20  C   UNL     1      27.859  -1.303  52.786  0.00  0.00    +0.000 A 
ATOM     21  C   UNL     1      26.471  -1.139  52.817  0.00  0.00    +0.000 A 
ATOM     22  C   UNL     1      25.864  -0.379  53.823  0.00  0.00    +0.000 A 
ATOM     23  C   UNL     1      26.682   0.224  54.787  0.00  0.00    +0.000 A 
ATOM     24  C   UNL     1      28.070   0.066  54.754  0.00  0.00    +0.000 A 
ENDBRANCH  17  22
ENDBRANCH   1  17
TORSDOF 6
ENDMDL
MODEL 8
REMARK VINA RESULT:    -6.448      2.270      4.792
REMARK INTER + INTRA:          -9.609
REMARK INTER:                  -9.086
REMARK INTRA:                  -0.523
REMARK UNBOUND:                -0.900
REMARK  Name = 
REMARK  7 active torsions:
REMARK  status: ('A' for Active; 'I' for Inactive)
REMARK    1  A    between atoms: C_1  and  C_2
REMARK    2  A    between atoms: C_5  and  S_6
REMARK    3  A    between atoms: S_6  and  C_7
REMARK    4  A    between atoms: C_13  and  C_14
REMARK    5  A    between atoms: N_15  and  O_16
REMARK    6  A    between atoms: O_16  and  C_17
REMARK    7  A    between atoms: C_17  and  C_18
REMARK                            x       y       z     vdW  Elec       q    Type
REMARK                         _______ _______ _______ _____ _____    ______ ____
ROOT
ATOM      1  C   UNL     1      21.277   3.085  50.367  0.00  0.00    +0.000 A 
ATOM      2  C   UNL     1      20.852   4.408  50.420  0.00  0.00    +0.000 A 
ATOM      3  N   UNL     1      21.405   5.360  51.200  0.00  0.00    +0.000 NA
ATOM      4  C   UNL     1      22.454   5.026  51.982  0.00  0.00    +0.000 A 
ATOM      5  C   UNL     1      22.939   3.716  51.986  0.00  0.00    +0.000 A 
ATOM      6  S   UNL     1      24.260   3.118  52.907  0.00  0.00    +0.000 S 
ATOM      7  C   UNL     1      24.078   1.535  52.305  0.00  0.00    +0.000 A 
ATOM      8  C   UNL     1      23.040   1.456  51.401  0.00  0.00    +0.000 A 
ATOM      9  C   UNL     1      22.367   2.717  51.190  0.00  0.00    +0.000 A 
ENDROOT
BRANCH   7  10
ATOM     10  C   UNL     1      24.953   0.476  52.746  0.00  0.00    +0.000 C 
ATOM     11  N   UNL     1      25.767   0.653  53.737  0.00  0.00    +0.000 NA
BRANCH  11  12
ATOM     12  O   UNL     1      26.531  -0.505  53.945  0.00  0.00    +0.000 OA
BRANCH  12  13
ATOM     13  C   UNL     1      27.663  -0.434  53.083  0.00  0.00    +0.000 C 
BRANCH  13  14
ATOM     14  C   UNL     1      28.952  -0.422  53.868  0.00  0.00    +0.000 C 
ATOM     15  O   UNL     1      30.028  -0.906  53.555  0.00  0.00    +0.000 OA
ATOM     16  O   UNL     1      28.822   0.220  55.052  0.00  0.00    +0.000 OA
ENDBRANCH  13  14
ENDBRANCH  12  13
ENDBRANCH  11  12
ENDBRANCH   7  10
BRANCH   1  17
ATOM     17  S   UNL     1      20.524   1.907  49.289  0.00  0.00    +0.000 S 
BRANCH  17  22
ATOM     18  C   UNL     1      16.471  -1.226  52.616  0.00  0.00    +0.000 C 
ATOM     19  C   UNL     1      17.489  -0.456  51.830  0.00  0.00    +0.000 A 
ATOM     20  C   UNL     1      18.822  -0.394  52.246  0.00  0.00    +0.000 A 
ATOM     21  C   UNL     1      19.768   0.321  51.503  0.00  0.00    +0.000 A 
ATOM     22  C   UNL     1      19.401   0.982  50.326  0.00  0.00    +0.000 A 
ATOM     23  C   UNL     1      18.062   0.922  49.919  0.00  0.00    +0.000 A 
ATOM     24  C   UNL     1      17.115   0.212  50.662  0.00  0.00    +0.000 A 
ENDBRANCH  17  22
ENDBRANCH   1  17
TORSDOF 6
ENDMDL
MODEL 9
REMARK VINA RESULT:    -6.345      5.256      8.009
REMARK INTER + INTRA:          -9.470
REMARK INTER:                  -9.041
REMARK INTRA:                  -0.430
REMARK UNBOUND:                -0.900
REMARK  Name = 
REMARK  7 active torsions:
REMARK  status: ('A' for Active; 'I' for Inactive)
REMARK    1  A    between atoms: C_1  and  C_2
REMARK    2  A    between atoms: C_5  and  S_6
REMARK    3  A    between atoms: S_6  and  C_7
REMARK    4  A    between atoms: C_13  and  C_14
REMARK    5  A    between atoms: N_15  and  O_16
REMARK    6  A    between atoms: O_16  and  C_17
REMARK    7  A    between atoms: C_17  and  C_18
REMARK                            x       y       z     vdW  Elec       q    Type
REMARK                         _______ _______ _______ _____ _____    ______ ____
ROOT
ATOM      1  C   UNL     1      23.255   0.111  53.241  0.00  0.00    +0.000 A 
ATOM      2  C   UNL     1      23.657  -0.618  54.354  0.00  0.00    +0.000 A 
ATOM      3  N   UNL     1      22.835  -1.363  55.122  0.00  0.00    +0.000 NA
ATOM      4  C   UNL     1      21.527  -1.427  54.794  0.00  0.00    +0.000 A 
ATOM      5  C   UNL     1      21.043  -0.721  53.689  0.00  0.00    +0.000 A 
ATOM      6  S   UNL     1      19.421  -0.691  53.126  0.00  0.00    +0.000 S 
ATOM      7  C   UNL     1      19.789   0.379  51.853  0.00  0.00    +0.000 A 
ATOM      8  C   UNL     1      21.129   0.701  51.838  0.00  0.00    +0.000 A 
ATOM      9  C   UNL     1      21.884   0.065  52.893  0.00  0.00    +0.000 A 
ENDROOT
BRANCH   7  10
ATOM     10  C   UNL     1      18.757   0.833  50.954  0.00  0.00    +0.000 C 
ATOM     11  N   UNL     1      17.537   0.418  51.075  0.00  0.00    +0.000 NA
BRANCH  11  12
ATOM     12  O   UNL     1      16.737   0.972  50.064  0.00  0.00    +0.000 OA
BRANCH  12  13
ATOM     13  C   UNL     1      15.456   0.353  50.143  0.00  0.00    +0.000 C 
BRANCH  13  14
ATOM     14  C   UNL     1      15.506  -1.076  49.662  0.00  0.00    +0.000 C 
ATOM     15  O   UNL     1      15.881  -1.492  48.577  0.00  0.00    +0.000 OA
ATOM     16  O   UNL     1      15.064  -1.946  50.600  0.00  0.00    +0.000 OA
ENDBRANCH  13  14
ENDBRANCH  12  13
ENDBRANCH  11  12
ENDBRANCH   7  10
BRANCH   1  17
ATOM     17  S   UNL     1      24.401   1.032  52.264  0.00  0.00    +0.000 S 
BRANCH  17  22
ATOM     18  C   UNL     1      29.934  -1.030  53.829  0.00  0.00    +0.000 C 
ATOM     19  C   UNL     1      28.573  -0.553  53.419  0.00  0.00    +0.000 A 
ATOM     20  C   UNL     1      27.695  -1.390  52.726  0.00  0.00    +0.000 A 
ATOM     21  C   UNL     1      26.424  -0.940  52.353  0.00  0.00    +0.000 A 
ATOM     22  C   UNL     1      26.004   0.356  52.671  0.00  0.00    +0.000 A 
ATOM     23  C   UNL     1      26.891   1.193  53.360  0.00  0.00    +0.000 A 
ATOM     24  C   UNL     1      28.163   0.746  53.729  0.00  0.00    +0.000 A 
ENDBRANCH  17  22
ENDBRANCH   1  17
TORSDOF 6
ENDMDL
