MODEL 1
REMARK VINA RESULT:    -8.528      0.000      0.000
REMARK INTER + INTRA:         -13.175
REMARK INTER:                 -12.017
REMARK INTRA:                  -1.157
REMARK UNBOUND:                -1.157
REMARK  Name = 
REMARK  12 active torsions:
REMARK  status: ('A' for Active; 'I' for Inactive)
REMARK    1  A    between atoms: C_1  and  C_2
REMARK    2  A    between atoms: C_2  and  C_3
REMARK    3  A    between atoms: C_4  and  C_5
REMARK    4  A    between atoms: C_5  and  C_6
REMARK    5  A    between atoms: C_6  and  O_7
REMARK    6  A    between atoms: C_6  and  C_13
REMARK    7  A    between atoms: O_7  and  C_8
REMARK    8  A    between atoms: C_8  and  C_10
REMARK    9  A    between atoms: C_10  and  C_11
REMARK   10  A    between atoms: C_10  and  C_12
REMARK   11  A    between atoms: C_18  and  O_19
REMARK   12  A    between atoms: C_22  and  O_23
REMARK                            x       y       z     vdW  Elec       q    Type
REMARK                         _______ _______ _______ _____ _____    ______ ____
ROOT
ATOM      1  C   UNL     1      25.978   1.236  52.531  0.00  0.00    +0.000 C 
ATOM      2  C   UNL     1      25.648  -0.033  52.274  0.00  0.00    +0.000 C 
ATOM      3  C   UNL     1      26.516  -1.173  52.536  0.00  0.00    +0.000 C 
ATOM      4  O   UNL     1      26.125  -2.310  52.320  0.00  0.00    +0.000 OA
ATOM      5  C   UNL     1      27.862  -0.908  53.036  0.00  0.00    +0.000 A 
ATOM      6  C   UNL     1      28.752  -1.985  53.164  0.00  0.00    +0.000 A 
ATOM      7  C   UNL     1      30.035  -1.776  53.641  0.00  0.00    +0.000 A 
ATOM      8  C   UNL     1      30.432  -0.490  54.003  0.00  0.00    +0.000 A 
ATOM      9  C   UNL     1      29.546   0.586  53.869  0.00  0.00    +0.000 A 
ATOM     10  C   UNL     1      28.250   0.395  53.373  0.00  0.00    +0.000 A 
ATOM     11  C   UNL     1      27.293   1.526  53.185  0.00  0.00    +0.000 C 
ATOM     12  O   UNL     1      27.543   2.675  53.534  0.00  0.00    +0.000 OA
ENDROOT
BRANCH   6  13
ATOM     13  O   UNL     1      28.432  -3.273  52.825  0.00  0.00    +0.000 OA
ATOM     14  H   UNL     1      27.692  -3.442  52.276  0.00  0.00    +0.000 HD
ENDBRANCH   6  13
BRANCH   9  15
ATOM     15  O   UNL     1      29.982   1.829  54.226  0.00  0.00    +0.000 OA
ATOM     16  H   UNL     1      29.375   2.459  54.564  0.00  0.00    +0.000 HD
ENDBRANCH   9  15
BRANCH   1  17
ATOM     17  C   UNL     1      25.084   2.435  52.248  0.00  0.00    +0.000 C 
BRANCH  17  18
ATOM     18  C   UNL     1      24.904   2.678  50.732  0.00  0.00    +0.000 C 
BRANCH  18  22
ATOM     19  C   UNL     1      25.076   5.263  49.122  0.00  0.00    +0.000 C 
ATOM     20  C   UNL     1      26.245   4.348  49.355  0.00  0.00    +0.000 C 
ATOM     21  C   UNL     1      27.555   4.725  48.721  0.00  0.00    +0.000 C 
ATOM     22  C   UNL     1      26.150   3.213  50.074  0.00  0.00    +0.000 C 
ENDBRANCH  18  22
ENDBRANCH  17  18
BRANCH  17  23
ATOM     23  O   UNL     1      23.856   2.331  53.023  0.00  0.00    +0.000 OA
BRANCH  23  24
ATOM     24  C   UNL     1      22.657   2.615  52.465  0.00  0.00    +0.000 C 
ATOM     25  O   UNL     1      22.331   3.693  51.987  0.00  0.00    +0.000 OA
BRANCH  24  26
ATOM     26  C   UNL     1      21.779   1.383  52.356  0.00  0.00    +0.000 C 
ATOM     27  C   UNL     1      21.807   0.716  50.980  0.00  0.00    +0.000 C 
ATOM     28  C   UNL     1      22.155   0.426  53.471  0.00  0.00    +0.000 C 
ENDBRANCH  24  26
ENDBRANCH  23  24
ENDBRANCH  17  23
ENDBRANCH   1  17
TORSDOF 8
ENDMDL
MODEL 2
REMARK VINA RESULT:    -8.430      1.356      1.878
REMARK INTER + INTRA:         -13.037
REMARK INTER:                 -11.630
REMARK INTRA:                  -1.407
REMARK UNBOUND:                -1.157
REMARK  Name = 
REMARK  12 active torsions:
REMARK  status: ('A' for Active; 'I' for Inactive)
REMARK    1  A    between atoms: C_1  and  C_2
REMARK    2  A    between atoms: C_2  and  C_3
REMARK    3  A    between atoms: C_4  and  C_5
REMARK    4  A    between atoms: C_5  and  C_6
REMARK    5  A    between atoms: C_6  and  O_7
REMARK    6  A    between atoms: C_6  and  C_13
REMARK    7  A    between atoms: O_7  and  C_8
REMARK    8  A    between atoms: C_8  and  C_10
REMARK    9  A    between atoms: C_10  and  C_11
REMARK   10  A    between atoms: C_10  and  C_12
REMARK   11  A    between atoms: C_18  and  O_19
REMARK   12  A    between atoms: C_22  and  O_23
REMARK                            x       y       z     vdW  Elec       q    Type
REMARK                         _______ _______ _______ _____ _____    ______ ____
ROOT
ATOM      1  C   UNL     1      24.930   0.642  52.586  0.00  0.00    +0.000 C 
ATOM      2  C   UNL     1      25.174  -0.662  52.421  0.00  0.00    +0.000 C 
ATOM      3  C   UNL     1      26.432  -1.308  52.768  0.00  0.00    +0.000 C 
ATOM      4  O   UNL     1      26.564  -2.515  52.634  0.00  0.00    +0.000 OA
ATOM      5  C   UNL     1      27.524  -0.468  53.250  0.00  0.00    +0.000 A 
ATOM      6  C   UNL     1      28.780  -1.056  53.458  0.00  0.00    +0.000 A 
ATOM      7  C   UNL     1      29.838  -0.294  53.923  0.00  0.00    +0.000 A 
ATOM      8  C   UNL     1      29.645   1.059  54.190  0.00  0.00    +0.000 A 
ATOM      9  C   UNL     1      28.393   1.650  53.976  0.00  0.00    +0.000 A 
ATOM     10  C   UNL     1      27.315   0.897  53.492  0.00  0.00    +0.000 A 
ATOM     11  C   UNL     1      25.978   1.502  53.219  0.00  0.00    +0.000 C 
ATOM     12  O   UNL     1      25.709   2.669  53.484  0.00  0.00    +0.000 OA
ENDROOT
BRANCH   6  13
ATOM     13  O   UNL     1      29.043  -2.379  53.214  0.00  0.00    +0.000 OA
ATOM     14  H   UNL     1      29.414  -2.914  53.888  0.00  0.00    +0.000 HD
ENDBRANCH   6  13
BRANCH   9  15
ATOM     15  O   UNL     1      28.253   2.981  54.242  0.00  0.00    +0.000 OA
ATOM     16  H   UNL     1      28.009   3.263  55.102  0.00  0.00    +0.000 HD
ENDBRANCH   9  15
BRANCH   1  17
ATOM     17  C   UNL     1      23.624   1.329  52.213  0.00  0.00    +0.000 C 
BRANCH  17  18
ATOM     18  C   UNL     1      23.630   1.834  50.752  0.00  0.00    +0.000 C 
BRANCH  18  22
ATOM     19  C   UNL     1      26.224   3.152  49.836  0.00  0.00    +0.000 C 
ATOM     20  C   UNL     1      25.000   3.920  50.250  0.00  0.00    +0.000 C 
ATOM     21  C   UNL     1      25.091   5.421  50.242  0.00  0.00    +0.000 C 
ATOM     22  C   UNL     1      23.862   3.319  50.647  0.00  0.00    +0.000 C 
ENDBRANCH  18  22
ENDBRANCH  17  18
BRANCH  17  23
ATOM     23  O   UNL     1      22.497   0.487  52.588  0.00  0.00    +0.000 OA
BRANCH  23  24
ATOM     24  C   UNL     1      21.408   1.015  53.192  0.00  0.00    +0.000 C 
ATOM     25  O   UNL     1      20.864   2.068  52.887  0.00  0.00    +0.000 OA
BRANCH  24  26
ATOM     26  C   UNL     1      20.821   0.069  54.222  0.00  0.00    +0.000 C 
ATOM     27  C   UNL     1      19.688  -0.808  53.690  0.00  0.00    +0.000 C 
ATOM     28  C   UNL     1      21.950  -0.744  54.825  0.00  0.00    +0.000 C 
ENDBRANCH  24  26
ENDBRANCH  23  24
ENDBRANCH  17  23
ENDBRANCH   1  17
TORSDOF 8
ENDMDL
MODEL 3
REMARK VINA RESULT:    -8.107      1.278      4.087
REMARK INTER + INTRA:         -12.582
REMARK INTER:                 -11.645
REMARK INTRA:                  -0.937
REMARK UNBOUND:                -1.157
REMARK  Name = 
REMARK  12 active torsions:
REMARK  status: ('A' for Active; 'I' for Inactive)
REMARK    1  A    between atoms: C_1  and  C_2
REMARK    2  A    between atoms: C_2  and  C_3
REMARK    3  A    between atoms: C_4  and  C_5
REMARK    4  A    between atoms: C_5  and  C_6
REMARK    5  A    between atoms: C_6  and  O_7
REMARK    6  A    between atoms: C_6  and  C_13
REMARK    7  A    between atoms: O_7  and  C_8
REMARK    8  A    between atoms: C_8  and  C_10
REMARK    9  A    between atoms: C_10  and  C_11
REMARK   10  A    between atoms: C_10  and  C_12
REMARK   11  A    between atoms: C_18  and  O_19
REMARK   12  A    between atoms: C_22  and  O_23
REMARK                            x       y       z     vdW  Elec       q    Type
REMARK                         _______ _______ _______ _____ _____    ______ ____
ROOT
ATOM      1  C   UNL     1      25.234   0.523  52.493  0.00  0.00    +0.000 C 
ATOM      2  C   UNL     1      25.438  -0.774  52.242  0.00  0.00    +0.000 C 
ATOM      3  C   UNL     1      26.669  -1.484  52.561  0.00  0.00    +0.000 C 
ATOM      4  O   UNL     1      26.764  -2.684  52.347  0.00  0.00    +0.000 OA
ATOM      5  C   UNL     1      27.780  -0.716  53.114  0.00  0.00    +0.000 A 
ATOM      6  C   UNL     1      29.013  -1.359  53.298  0.00  0.00    +0.000 A 
ATOM      7  C   UNL     1      30.089  -0.667  53.827  0.00  0.00    +0.000 A 
ATOM      8  C   UNL     1      29.935   0.671  54.184  0.00  0.00    +0.000 A 
ATOM      9  C   UNL     1      28.707   1.317  53.993  0.00  0.00    +0.000 A 
ATOM     10  C   UNL     1      27.612   0.635  53.445  0.00  0.00    +0.000 A 
ATOM     11  C   UNL     1      26.300   1.302  53.197  0.00  0.00    +0.000 C 
ATOM     12  O   UNL     1      26.065   2.457  53.537  0.00  0.00    +0.000 OA
ENDROOT
BRANCH   6  13
ATOM     13  O   UNL     1      29.237  -2.670  52.967  0.00  0.00    +0.000 OA
ATOM     14  H   UNL     1      29.681  -2.882  52.170  0.00  0.00    +0.000 HD
ENDBRANCH   6  13
BRANCH   9  15
ATOM     15  O   UNL     1      28.606   2.631  54.348  0.00  0.00    +0.000 OA
ATOM     16  H   UNL     1      28.386   3.274  53.702  0.00  0.00    +0.000 HD
ENDBRANCH   9  15
BRANCH   1  17
ATOM     17  C   UNL     1      23.957   1.277  52.151  0.00  0.00    +0.000 C 
BRANCH  17  18
ATOM     18  C   UNL     1      23.028   1.430  53.376  0.00  0.00    +0.000 C 
BRANCH  18  22
ATOM     19  C   UNL     1      23.121  -1.018  55.193  0.00  0.00    +0.000 C 
ATOM     20  C   UNL     1      21.997  -0.733  54.238  0.00  0.00    +0.000 C 
ATOM     21  C   UNL     1      20.883  -1.740  54.160  0.00  0.00    +0.000 C 
ATOM     22  C   UNL     1      21.971   0.357  53.446  0.00  0.00    +0.000 C 
ENDBRANCH  18  22
ENDBRANCH  17  18
BRANCH  17  23
ATOM     23  O   UNL     1      24.283   2.507  51.445  0.00  0.00    +0.000 OA
BRANCH  23  24
ATOM     24  C   UNL     1      23.850   2.718  50.181  0.00  0.00    +0.000 C 
ATOM     25  O   UNL     1      22.722   2.485  49.766  0.00  0.00    +0.000 OA
BRANCH  24  26
ATOM     26  C   UNL     1      24.891   3.430  49.339  0.00  0.00    +0.000 C 
ATOM     27  C   UNL     1      24.588   4.907  49.089  0.00  0.00    +0.000 C 
ATOM     28  C   UNL     1      26.251   3.217  49.976  0.00  0.00    +0.000 C 
ENDBRANCH  24  26
ENDBRANCH  23  24
ENDBRANCH  17  23
ENDBRANCH   1  17
TORSDOF 8
ENDMDL
MODEL 4
REMARK VINA RESULT:    -8.011      1.958      4.527
REMARK INTER + INTRA:         -12.446
REMARK INTER:                 -11.161
REMARK INTRA:                  -1.285
REMARK UNBOUND:                -1.157
REMARK  Name = 
REMARK  12 active torsions:
REMARK  status: ('A' for Active; 'I' for Inactive)
REMARK    1  A    between atoms: C_1  and  C_2
REMARK    2  A    between atoms: C_2  and  C_3
REMARK    3  A    between atoms: C_4  and  C_5
REMARK    4  A    between atoms: C_5  and  C_6
REMARK    5  A    between atoms: C_6  and  O_7
REMARK    6  A    between atoms: C_6  and  C_13
REMARK    7  A    between atoms: O_7  and  C_8
REMARK    8  A    between atoms: C_8  and  C_10
REMARK    9  A    between atoms: C_10  and  C_11
REMARK   10  A    between atoms: C_10  and  C_12
REMARK   11  A    between atoms: C_18  and  O_19
REMARK   12  A    between atoms: C_22  and  O_23
REMARK                            x       y       z     vdW  Elec       q    Type
REMARK                         _______ _______ _______ _____ _____    ______ ____
ROOT
ATOM      1  C   UNL     1      25.463   0.875  52.568  0.00  0.00    +0.000 C 
ATOM      2  C   UNL     1      26.184   1.939  52.938  0.00  0.00    +0.000 C 
ATOM      3  C   UNL     1      27.584   1.881  53.331  0.00  0.00    +0.000 C 
ATOM      4  O   UNL     1      28.191   2.904  53.610  0.00  0.00    +0.000 OA
ATOM      5  C   UNL     1      28.221   0.570  53.406  0.00  0.00    +0.000 A 
ATOM      6  C   UNL     1      29.526   0.487  53.914  0.00  0.00    +0.000 A 
ATOM      7  C   UNL     1      30.167  -0.737  53.993  0.00  0.00    +0.000 A 
ATOM      8  C   UNL     1      29.510  -1.886  53.557  0.00  0.00    +0.000 A 
ATOM      9  C   UNL     1      28.204  -1.806  53.058  0.00  0.00    +0.000 A 
ATOM     10  C   UNL     1      27.535  -0.577  52.984  0.00  0.00    +0.000 A 
ATOM     11  C   UNL     1      26.131  -0.461  52.489  0.00  0.00    +0.000 C 
ATOM     12  O   UNL     1      25.506  -1.412  52.033  0.00  0.00    +0.000 OA
ENDROOT
BRANCH   6  13
ATOM     13  O   UNL     1      30.231   1.573  54.362  0.00  0.00    +0.000 OA
ATOM     14  H   UNL     1      29.915   2.438  54.192  0.00  0.00    +0.000 HD
ENDBRANCH   6  13
BRANCH   9  15
ATOM     15  O   UNL     1      27.596  -2.958  52.652  0.00  0.00    +0.000 OA
ATOM     16  H   UNL     1      27.558  -3.171  51.740  0.00  0.00    +0.000 HD
ENDBRANCH   9  15
BRANCH   1  17
ATOM     17  C   UNL     1      23.995   0.924  52.169  0.00  0.00    +0.000 C 
BRANCH  17  18
ATOM     18  C   UNL     1      23.077   1.238  53.372  0.00  0.00    +0.000 C 
BRANCH  18  22
ATOM     19  C   UNL     1      23.273  -1.220  55.167  0.00  0.00    +0.000 C 
ATOM     20  C   UNL     1      22.060  -0.883  54.346  0.00  0.00    +0.000 C 
ATOM     21  C   UNL     1      20.904  -1.843  54.396  0.00  0.00    +0.000 C 
ATOM     22  C   UNL     1      21.991   0.210  53.562  0.00  0.00    +0.000 C 
ENDBRANCH  18  22
ENDBRANCH  17  18
BRANCH  17  23
ATOM     23  O   UNL     1      23.827   1.780  51.003  0.00  0.00    +0.000 OA
BRANCH  23  24
ATOM     24  C   UNL     1      22.602   2.222  50.638  0.00  0.00    +0.000 C 
ATOM     25  O   UNL     1      22.179   3.359  50.795  0.00  0.00    +0.000 OA
BRANCH  24  26
ATOM     26  C   UNL     1      21.834   1.173  49.857  0.00  0.00    +0.000 C 
ATOM     27  C   UNL     1      20.414   0.931  50.368  0.00  0.00    +0.000 C 
ATOM     28  C   UNL     1      21.865   1.550  48.388  0.00  0.00    +0.000 C 
ENDBRANCH  24  26
ENDBRANCH  23  24
ENDBRANCH  17  23
ENDBRANCH   1  17
TORSDOF 8
ENDMDL
MODEL 5
REMARK VINA RESULT:    -7.767      2.605      6.888
REMARK INTER + INTRA:         -12.103
REMARK INTER:                 -11.012
REMARK INTRA:                  -1.091
REMARK UNBOUND:                -1.157
REMARK  Name = 
REMARK  12 active torsions:
REMARK  status: ('A' for Active; 'I' for Inactive)
REMARK    1  A    between atoms: C_1  and  C_2
REMARK    2  A    between atoms: C_2  and  C_3
REMARK    3  A    between atoms: C_4  and  C_5
REMARK    4  A    between atoms: C_5  and  C_6
REMARK    5  A    between atoms: C_6  and  O_7
REMARK    6  A    between atoms: C_6  and  C_13
REMARK    7  A    between atoms: O_7  and  C_8
REMARK    8  A    between atoms: C_8  and  C_10
REMARK    9  A    between atoms: C_10  and  C_11
REMARK   10  A    between atoms: C_10  and  C_12
REMARK   11  A    between atoms: C_18  and  O_19
REMARK   12  A    between atoms: C_22  and  O_23
REMARK                            x       y       z     vdW  Elec       q    Type
REMARK                         _______ _______ _______ _____ _____    ______ ____
ROOT
ATOM      1  C   UNL     1      23.278   0.765  52.501  0.00  0.00    +0.000 C 
ATOM      2  C   UNL     1      22.850   0.083  53.568  0.00  0.00    +0.000 C 
ATOM      3  C   UNL     1      21.496  -0.429  53.720  0.00  0.00    +0.000 C 
ATOM      4  O   UNL     1      21.191  -1.088  54.703  0.00  0.00    +0.000 OA
ATOM      5  C   UNL     1      20.520  -0.109  52.682  0.00  0.00    +0.000 A 
ATOM      6  C   UNL     1      19.182  -0.480  52.883  0.00  0.00    +0.000 A 
ATOM      7  C   UNL     1      18.229  -0.201  51.918  0.00  0.00    +0.000 A 
ATOM      8  C   UNL     1      18.610   0.443  50.743  0.00  0.00    +0.000 A 
ATOM      9  C   UNL     1      19.944   0.820  50.545  0.00  0.00    +0.000 A 
ATOM     10  C   UNL     1      20.919   0.559  51.517  0.00  0.00    +0.000 A 
ATOM     11  C   UNL     1      22.342   0.979  51.352  0.00  0.00    +0.000 C 
ATOM     12  O   UNL     1      22.770   1.495  50.325  0.00  0.00    +0.000 OA
ENDROOT
BRANCH   6  13
ATOM     13  O   UNL     1      18.736  -1.112  54.014  0.00  0.00    +0.000 OA
ATOM     14  H   UNL     1      17.816  -1.187  54.176  0.00  0.00    +0.000 HD
ENDBRANCH   6  13
BRANCH   9  15
ATOM     15  O   UNL     1      20.270   1.458  49.383  0.00  0.00    +0.000 OA
ATOM     16  H   UNL     1      21.043   1.986  49.339  0.00  0.00    +0.000 HD
ENDBRANCH   9  15
BRANCH   1  17
ATOM     17  C   UNL     1      24.687   1.317  52.338  0.00  0.00    +0.000 C 
BRANCH  17  18
ATOM     18  C   UNL     1      24.894   2.625  53.136  0.00  0.00    +0.000 C 
BRANCH  18  22
ATOM     19  C   UNL     1      24.766   4.437  50.687  0.00  0.00    +0.000 C 
ATOM     20  C   UNL     1      23.751   4.462  51.795  0.00  0.00    +0.000 C 
ATOM     21  C   UNL     1      22.639   5.469  51.692  0.00  0.00    +0.000 C 
ATOM     22  C   UNL     1      23.823   3.650  52.867  0.00  0.00    +0.000 C 
ENDBRANCH  18  22
ENDBRANCH  17  18
BRANCH  17  23
ATOM     23  O   UNL     1      25.662   0.265  52.583  0.00  0.00    +0.000 OA
BRANCH  23  24
ATOM     24  C   UNL     1      26.515   0.339  53.630  0.00  0.00    +0.000 C 
ATOM     25  O   UNL     1      26.241   0.072  54.793  0.00  0.00    +0.000 OA
BRANCH  24  26
ATOM     26  C   UNL     1      27.930   0.655  53.185  0.00  0.00    +0.000 C 
ATOM     27  C   UNL     1      28.423   2.038  53.609  0.00  0.00    +0.000 C 
ATOM     28  C   UNL     1      28.843  -0.457  53.662  0.00  0.00    +0.000 C 
ENDBRANCH  24  26
ENDBRANCH  23  24
ENDBRANCH  17  23
ENDBRANCH   1  17
TORSDOF 8
ENDMDL
MODEL 6
REMARK VINA RESULT:    -7.697      2.521      4.656
REMARK INTER + INTRA:         -12.004
REMARK INTER:                 -10.599
REMARK INTRA:                  -1.404
REMARK UNBOUND:                -1.157
REMARK  Name = 
REMARK  12 active torsions:
REMARK  status: ('A' for Active; 'I' for Inactive)
REMARK    1  A    between atoms: C_1  and  C_2
REMARK    2  A    between atoms: C_2  and  C_3
REMARK    3  A    between atoms: C_4  and  C_5
REMARK    4  A    between atoms: C_5  and  C_6
REMARK    5  A    between atoms: C_6  and  O_7
REMARK    6  A    between atoms: C_6  and  C_13
REMARK    7  A    between atoms: O_7  and  C_8
REMARK    8  A    between atoms: C_8  and  C_10
REMARK    9  A    between atoms: C_10  and  C_11
REMARK   10  A    between atoms: C_10  and  C_12
REMARK   11  A    between atoms: C_18  and  O_19
REMARK   12  A    between atoms: C_22  and  O_23
REMARK                            x       y       z     vdW  Elec       q    Type
REMARK                         _______ _______ _______ _____ _____    ______ ____
ROOT
ATOM      1  C   UNL     1      23.373   1.425  51.531  0.00  0.00    +0.000 C 
ATOM      2  C   UNL     1      22.977   0.548  52.459  0.00  0.00    +0.000 C 
ATOM      3  C   UNL     1      23.823   0.065  53.541  0.00  0.00    +0.000 C 
ATOM      4  O   UNL     1      23.374  -0.700  54.382  0.00  0.00    +0.000 OA
ATOM      5  C   UNL     1      25.216   0.502  53.570  0.00  0.00    +0.000 A 
ATOM      6  C   UNL     1      26.074  -0.061  54.525  0.00  0.00    +0.000 A 
ATOM      7  C   UNL     1      27.400   0.332  54.589  0.00  0.00    +0.000 A 
ATOM      8  C   UNL     1      27.873   1.298  53.703  0.00  0.00    +0.000 A 
ATOM      9  C   UNL     1      27.018   1.855  52.744  0.00  0.00    +0.000 A 
ATOM     10  C   UNL     1      25.678   1.457  52.655  0.00  0.00    +0.000 A 
ATOM     11  C   UNL     1      24.749   2.006  51.622  0.00  0.00    +0.000 C 
ATOM     12  O   UNL     1      25.070   2.900  50.847  0.00  0.00    +0.000 OA
ENDROOT
BRANCH   6  13
ATOM     13  O   UNL     1      25.680  -1.017  55.425  0.00  0.00    +0.000 OA
ATOM     14  H   UNL     1      25.104  -1.705  55.154  0.00  0.00    +0.000 HD
ENDBRANCH   6  13
BRANCH   9  15
ATOM     15  O   UNL     1      27.528   2.790  51.890  0.00  0.00    +0.000 OA
ATOM     16  H   UNL     1      26.959   3.424  51.497  0.00  0.00    +0.000 HD
ENDBRANCH   9  15
BRANCH   1  17
ATOM     17  C   UNL     1      22.501   1.924  50.388  0.00  0.00    +0.000 C 
BRANCH  17  18
ATOM     18  C   UNL     1      21.628   0.798  49.789  0.00  0.00    +0.000 C 
BRANCH  18  22
ATOM     19  C   UNL     1      19.353   0.068  51.685  0.00  0.00    +0.000 C 
ATOM     20  C   UNL     1      19.168   0.888  50.440  0.00  0.00    +0.000 C 
ATOM     21  C   UNL     1      17.771   1.333  50.106  0.00  0.00    +0.000 C 
ATOM     22  C   UNL     1      20.187   1.204  49.617  0.00  0.00    +0.000 C 
ENDBRANCH  18  22
ENDBRANCH  17  18
BRANCH  17  23
ATOM     23  O   UNL     1      21.792   3.127  50.796  0.00  0.00    +0.000 OA
BRANCH  23  24
ATOM     24  C   UNL     1      21.973   4.296  50.140  0.00  0.00    +0.000 C 
ATOM     25  O   UNL     1      21.630   4.528  48.989  0.00  0.00    +0.000 OA
BRANCH  24  26
ATOM     26  C   UNL     1      22.531   5.373  51.050  0.00  0.00    +0.000 C 
ATOM     27  C   UNL     1      21.880   6.744  50.868  0.00  0.00    +0.000 C 
ATOM     28  C   UNL     1      22.452   4.880  52.482  0.00  0.00    +0.000 C 
ENDBRANCH  24  26
ENDBRANCH  23  24
ENDBRANCH  17  23
ENDBRANCH   1  17
TORSDOF 8
ENDMDL
MODEL 7
REMARK VINA RESULT:    -7.685      1.846      6.910
REMARK INTER + INTRA:         -11.988
REMARK INTER:                 -11.280
REMARK INTRA:                  -0.708
REMARK UNBOUND:                -1.157
REMARK  Name = 
REMARK  12 active torsions:
REMARK  status: ('A' for Active; 'I' for Inactive)
REMARK    1  A    between atoms: C_1  and  C_2
REMARK    2  A    between atoms: C_2  and  C_3
REMARK    3  A    between atoms: C_4  and  C_5
REMARK    4  A    between atoms: C_5  and  C_6
REMARK    5  A    between atoms: C_6  and  O_7
REMARK    6  A    between atoms: C_6  and  C_13
REMARK    7  A    between atoms: O_7  and  C_8
REMARK    8  A    between atoms: C_8  and  C_10
REMARK    9  A    between atoms: C_10  and  C_11
REMARK   10  A    between atoms: C_10  and  C_12
REMARK   11  A    between atoms: C_18  and  O_19
REMARK   12  A    between atoms: C_22  and  O_23
REMARK                            x       y       z     vdW  Elec       q    Type
REMARK                         _______ _______ _______ _____ _____    ______ ____
ROOT
ATOM      1  C   UNL     1      24.949   2.413  52.601  0.00  0.00    +0.000 C 
ATOM      2  C   UNL     1      23.866   3.139  52.895  0.00  0.00    +0.000 C 
ATOM      3  C   UNL     1      23.430   4.301  52.133  0.00  0.00    +0.000 C 
ATOM      4  O   UNL     1      22.400   4.886  52.433  0.00  0.00    +0.000 OA
ATOM      5  C   UNL     1      24.271   4.752  51.029  0.00  0.00    +0.000 A 
ATOM      6  C   UNL     1      23.935   5.947  50.376  0.00  0.00    +0.000 A 
ATOM      7  C   UNL     1      24.705   6.404  49.319  0.00  0.00    +0.000 A 
ATOM      8  C   UNL     1      25.809   5.664  48.903  0.00  0.00    +0.000 A 
ATOM      9  C   UNL     1      26.150   4.475  49.560  0.00  0.00    +0.000 A 
ATOM     10  C   UNL     1      25.392   4.005  50.641  0.00  0.00    +0.000 A 
ATOM     11  C   UNL     1      25.747   2.760  51.384  0.00  0.00    +0.000 C 
ATOM     12  O   UNL     1      26.666   2.022  51.045  0.00  0.00    +0.000 OA
ENDROOT
BRANCH   6  13
ATOM     13  O   UNL     1      22.867   6.727  50.732  0.00  0.00    +0.000 OA
ATOM     14  H   UNL     1      22.745   7.565  50.331  0.00  0.00    +0.000 HD
ENDBRANCH   6  13
BRANCH   9  15
ATOM     15  O   UNL     1      27.246   3.788  49.125  0.00  0.00    +0.000 OA
ATOM     16  H   UNL     1      27.504   2.996  49.556  0.00  0.00    +0.000 HD
ENDBRANCH   9  15
BRANCH   1  17
ATOM     17  C   UNL     1      25.420   1.205  53.399  0.00  0.00    +0.000 C 
BRANCH  17  18
ATOM     18  C   UNL     1      24.791  -0.110  52.886  0.00  0.00    +0.000 C 
BRANCH  18  22
ATOM     19  C   UNL     1      21.794   0.011  52.332  0.00  0.00    +0.000 C 
ATOM     20  C   UNL     1      22.387  -0.590  53.575  0.00  0.00    +0.000 C 
ATOM     21  C   UNL     1      21.433  -1.123  54.608  0.00  0.00    +0.000 C 
ATOM     22  C   UNL     1      23.715  -0.639  53.799  0.00  0.00    +0.000 C 
ENDBRANCH  18  22
ENDBRANCH  17  18
BRANCH  17  23
ATOM     23  O   UNL     1      26.872   1.216  53.501  0.00  0.00    +0.000 OA
BRANCH  23  24
ATOM     24  C   UNL     1      27.529   0.221  54.139  0.00  0.00    +0.000 C 
ATOM     25  O   UNL     1      27.347  -0.125  55.299  0.00  0.00    +0.000 OA
BRANCH  24  26
ATOM     26  C   UNL     1      28.443  -0.545  53.201  0.00  0.00    +0.000 C 
ATOM     27  C   UNL     1      29.887  -0.657  53.690  0.00  0.00    +0.000 C 
ATOM     28  C   UNL     1      27.819  -1.899  52.923  0.00  0.00    +0.000 C 
ENDBRANCH  24  26
ENDBRANCH  23  24
ENDBRANCH  17  23
ENDBRANCH   1  17
TORSDOF 8
ENDMDL
MODEL 8
REMARK VINA RESULT:    -7.550      2.400      4.078
REMARK INTER + INTRA:         -11.797
REMARK INTER:                 -10.437
REMARK INTRA:                  -1.361
REMARK UNBOUND:                -1.157
REMARK  Name = 
REMARK  12 active torsions:
REMARK  status: ('A' for Active; 'I' for Inactive)
REMARK    1  A    between atoms: C_1  and  C_2
REMARK    2  A    between atoms: C_2  and  C_3
REMARK    3  A    between atoms: C_4  and  C_5
REMARK    4  A    between atoms: C_5  and  C_6
REMARK    5  A    between atoms: C_6  and  O_7
REMARK    6  A    between atoms: C_6  and  C_13
REMARK    7  A    between atoms: O_7  and  C_8
REMARK    8  A    between atoms: C_8  and  C_10
REMARK    9  A    between atoms: C_10  and  C_11
REMARK   10  A    between atoms: C_10  and  C_12
REMARK   11  A    between atoms: C_18  and  O_19
REMARK   12  A    between atoms: C_22  and  O_23
REMARK                            x       y       z     vdW  Elec       q    Type
REMARK                         _______ _______ _______ _____ _____    ______ ____
ROOT
ATOM      1  C   UNL     1      24.153   1.408  52.070  0.00  0.00    +0.000 C 
ATOM      2  C   UNL     1      25.032   2.220  51.473  0.00  0.00    +0.000 C 
ATOM      3  C   UNL     1      26.433   2.328  51.852  0.00  0.00    +0.000 C 
ATOM      4  O   UNL     1      27.189   3.057  51.226  0.00  0.00    +0.000 OA
ATOM      5  C   UNL     1      26.892   1.564  53.008  0.00  0.00    +0.000 A 
ATOM      6  C   UNL     1      28.203   1.764  53.466  0.00  0.00    +0.000 A 
ATOM      7  C   UNL     1      28.676   1.053  54.555  0.00  0.00    +0.000 A 
ATOM      8  C   UNL     1      27.845   0.131  55.188  0.00  0.00    +0.000 A 
ATOM      9  C   UNL     1      26.534  -0.063  54.737  0.00  0.00    +0.000 A 
ATOM     10  C   UNL     1      26.033   0.659  53.646  0.00  0.00    +0.000 A 
ATOM     11  C   UNL     1      24.629   0.501  53.161  0.00  0.00    +0.000 C 
ATOM     12  O   UNL     1      23.855  -0.329  53.624  0.00  0.00    +0.000 OA
ENDROOT
BRANCH   6  13
ATOM     13  O   UNL     1      29.073   2.655  52.895  0.00  0.00    +0.000 OA
ATOM     14  H   UNL     1      29.592   2.396  52.159  0.00  0.00    +0.000 HD
ENDBRANCH   6  13
BRANCH   9  15
ATOM     15  O   UNL     1      25.752  -0.968  55.394  0.00  0.00    +0.000 OA
ATOM     16  H   UNL     1      26.140  -1.565  56.005  0.00  0.00    +0.000 HD
ENDBRANCH   9  15
BRANCH   1  17
ATOM     17  C   UNL     1      22.684   1.299  51.690  0.00  0.00    +0.000 C 
BRANCH  17  18
ATOM     18  C   UNL     1      21.808   2.312  52.462  0.00  0.00    +0.000 C 
BRANCH  18  22
ATOM     19  C   UNL     1      23.309   4.928  52.914  0.00  0.00    +0.000 C 
ATOM     20  C   UNL     1      22.228   4.755  51.884  0.00  0.00    +0.000 C 
ATOM     21  C   UNL     1      21.853   5.960  51.067  0.00  0.00    +0.000 C 
ATOM     22  C   UNL     1      21.580   3.590  51.696  0.00  0.00    +0.000 C 
ENDBRANCH  18  22
ENDBRANCH  17  18
BRANCH  17  23
ATOM     23  O   UNL     1      22.544   1.315  50.242  0.00  0.00    +0.000 OA
BRANCH  23  24
ATOM     24  C   UNL     1      21.364   1.011  49.655  0.00  0.00    +0.000 C 
ATOM     25  O   UNL     1      20.478   0.327  50.149  0.00  0.00    +0.000 OA
BRANCH  24  26
ATOM     26  C   UNL     1      21.182   1.744  48.340  0.00  0.00    +0.000 C 
ATOM     27  C   UNL     1      19.968   2.673  48.307  0.00  0.00    +0.000 C 
ATOM     28  C   UNL     1      22.474   2.468  48.012  0.00  0.00    +0.000 C 
ENDBRANCH  24  26
ENDBRANCH  23  24
ENDBRANCH  17  23
ENDBRANCH   1  17
TORSDOF 8
ENDMDL
MODEL 9
REMARK VINA RESULT:    -7.418      2.223      7.248
REMARK INTER + INTRA:         -11.611
REMARK INTER:                 -10.744
REMARK INTRA:                  -0.867
REMARK UNBOUND:                -1.157
REMARK  Name = 
REMARK  12 active torsions:
REMARK  status: ('A' for Active; 'I' for Inactive)
REMARK    1  A    between atoms: C_1  and  C_2
REMARK    2  A    between atoms: C_2  and  C_3
REMARK    3  A    between atoms: C_4  and  C_5
REMARK    4  A    between atoms: C_5  and  C_6
REMARK    5  A    between atoms: C_6  and  O_7
REMARK    6  A    between atoms: C_6  and  C_13
REMARK    7  A    between atoms: O_7  and  C_8
REMARK    8  A    between atoms: C_8  and  C_10
REMARK    9  A    between atoms: C_10  and  C_11
REMARK   10  A    between atoms: C_10  and  C_12
REMARK   11  A    between atoms: C_18  and  O_19
REMARK   12  A    between atoms: C_22  and  O_23
REMARK                            x       y       z     vdW  Elec       q    Type
REMARK                         _______ _______ _______ _____ _____    ______ ____
ROOT
ATOM      1  C   UNL     1      25.423   2.985  51.397  0.00  0.00    +0.000 C 
ATOM      2  C   UNL     1      26.290   3.258  50.417  0.00  0.00    +0.000 C 
ATOM      3  C   UNL     1      26.273   4.482  49.628  0.00  0.00    +0.000 C 
ATOM      4  O   UNL     1      27.130   4.683  48.781  0.00  0.00    +0.000 OA
ATOM      5  C   UNL     1      25.193   5.435  49.865  0.00  0.00    +0.000 A 
ATOM      6  C   UNL     1      25.087   6.550  49.021  0.00  0.00    +0.000 A 
ATOM      7  C   UNL     1      24.080   7.480  49.218  0.00  0.00    +0.000 A 
ATOM      8  C   UNL     1      23.179   7.306  50.266  0.00  0.00    +0.000 A 
ATOM      9  C   UNL     1      23.280   6.188  51.105  0.00  0.00    +0.000 A 
ATOM     10  C   UNL     1      24.283   5.229  50.910  0.00  0.00    +0.000 A 
ATOM     11  C   UNL     1      24.397   4.010  51.764  0.00  0.00    +0.000 C 
ATOM     12  O   UNL     1      23.683   3.812  52.742  0.00  0.00    +0.000 OA
ENDROOT
BRANCH   6  13
ATOM     13  O   UNL     1      25.934   6.784  47.970  0.00  0.00    +0.000 OA
ATOM     14  H   UNL     1      26.669   7.354  48.080  0.00  0.00    +0.000 HD
ENDBRANCH   6  13
BRANCH   9  15
ATOM     15  O   UNL     1      22.369   6.053  52.112  0.00  0.00    +0.000 OA
ATOM     16  H   UNL     1      22.567   5.513  52.853  0.00  0.00    +0.000 HD
ENDBRANCH   9  15
BRANCH   1  17
ATOM     17  C   UNL     1      25.425   1.703  52.217  0.00  0.00    +0.000 C 
BRANCH  17  18
ATOM     18  C   UNL     1      24.161   0.850  51.964  0.00  0.00    +0.000 C 
BRANCH  18  22
ATOM     19  C   UNL     1      21.300   0.048  52.652  0.00  0.00    +0.000 C 
ATOM     20  C   UNL     1      22.491  -0.317  53.492  0.00  0.00    +0.000 C 
ATOM     21  C   UNL     1      22.236  -1.088  54.756  0.00  0.00    +0.000 C 
ATOM     22  C   UNL     1      23.748   0.043  53.168  0.00  0.00    +0.000 C 
ENDBRANCH  18  22
ENDBRANCH  17  18
BRANCH  17  23
ATOM     23  O   UNL     1      26.696   1.014  52.057  0.00  0.00    +0.000 OA
BRANCH  23  24
ATOM     24  C   UNL     1      27.632   1.047  53.033  0.00  0.00    +0.000 C 
ATOM     25  O   UNL     1      28.131   2.058  53.508  0.00  0.00    +0.000 OA
BRANCH  24  26
ATOM     26  C   UNL     1      27.905  -0.333  53.600  0.00  0.00    +0.000 C 
ATOM     27  C   UNL     1      27.189  -1.464  52.862  0.00  0.00    +0.000 C 
ATOM     28  C   UNL     1      29.406  -0.539  53.660  0.00  0.00    +0.000 C 
ENDBRANCH  24  26
ENDBRANCH  23  24
ENDBRANCH  17  23
ENDBRANCH   1  17
TORSDOF 8
ENDMDL
