MODEL 1
REMARK VINA RESULT:    -7.809      0.000      0.000
REMARK INTER + INTRA:          -9.953
REMARK INTER:                  -9.635
REMARK INTRA:                  -0.319
REMARK UNBOUND:                -0.319
REMARK  Name = 
REMARK  6 active torsions:
REMARK  status: ('A' for Active; 'I' for Inactive)
REMARK    1  A    between atoms: C_1  and  N_2
REMARK    2  A    between atoms: N_2  and  C_3
REMARK    3  A    between atoms: N_2  and  C_4
REMARK    4  A    between atoms: C_9  and  S_10
REMARK    5  A    between atoms: S_10  and  N_13
REMARK    6  A    between atoms: N_13  and  C_14
REMARK                            x       y       z     vdW  Elec       q    Type
REMARK                         _______ _______ _______ _____ _____    ______ ____
ROOT
ATOM      1  C   UNL     1      26.183   0.038  53.308  0.00  0.00    +0.000 A 
ATOM      2  C   UNL     1      26.211   0.942  52.230  0.00  0.00    +0.000 A 
ATOM      3  C   UNL     1      25.071   1.591  51.789  0.00  0.00    +0.000 A 
ATOM      4  C   UNL     1      23.844   1.262  52.339  0.00  0.00    +0.000 A 
ATOM      5  C   UNL     1      23.704   0.264  53.322  0.00  0.00    +0.000 A 
ATOM      6  C   UNL     1      22.441  -0.198  53.793  0.00  0.00    +0.000 A 
ATOM      7  C   UNL     1      22.359  -1.007  54.937  0.00  0.00    +0.000 A 
ATOM      8  C   UNL     1      23.519  -1.392  55.593  0.00  0.00    +0.000 A 
ATOM      9  C   UNL     1      24.762  -1.051  55.060  0.00  0.00    +0.000 A 
ATOM     10  C   UNL     1      24.903  -0.271  53.889  0.00  0.00    +0.000 A 
ENDROOT
BRANCH   1  12
ATOM     11  C   UNL     1      28.347   0.443  54.397  0.00  0.00    +0.000 C 
ATOM     12  N   UNL     1      27.399  -0.509  53.806  0.00  0.00    +0.000 N 
ATOM     13  C   UNL     1      28.032  -1.505  52.930  0.00  0.00    +0.000 C 
ENDBRANCH   1  12
BRANCH   6  14
ATOM     14  S   UNL     1      20.899   0.199  52.959  0.00  0.00    +0.000 S 
ATOM     15  O   UNL     1      20.611   1.595  53.229  0.00  0.00    +0.000 OA
ATOM     16  O   UNL     1      20.914  -0.278  51.600  0.00  0.00    +0.000 OA
BRANCH  14  17
ATOM     17  N   UNL     1      19.694  -0.629  53.825  0.00  0.00    +0.000 N 
ATOM     18  H   UNL     1      19.838  -0.854  54.773  0.00  0.00    +0.000 HD
BRANCH  17  19
ATOM     19  C   UNL     1      18.476  -0.997  53.183  0.00  0.00    +0.000 A 
ATOM     20  C   UNL     1      17.830  -2.172  53.515  0.00  0.00    +0.000 A 
ATOM     21  N   UNL     1      16.657  -2.572  52.974  0.00  0.00    +0.000 NA
ATOM     22  C   UNL     1      16.110  -1.744  52.067  0.00  0.00    +0.000 A 
ATOM     23 BR   UNL     1      14.482  -2.284  51.255  0.00  0.00    +0.000 Br
ATOM     24  N   UNL     1      16.635  -0.562  51.688  0.00  0.00    +0.000 NA
ATOM     25  C   UNL     1      17.811  -0.216  52.258  0.00  0.00    +0.000 A 
ENDBRANCH  17  19
ENDBRANCH  14  17
ENDBRANCH   6  14
TORSDOF 4
ENDMDL
MODEL 2
REMARK VINA RESULT:    -7.729      6.111      8.691
REMARK INTER + INTRA:          -9.854
REMARK INTER:                  -9.467
REMARK INTRA:                  -0.387
REMARK UNBOUND:                -0.319
REMARK  Name = 
REMARK  6 active torsions:
REMARK  status: ('A' for Active; 'I' for Inactive)
REMARK    1  A    between atoms: C_1  and  N_2
REMARK    2  A    between atoms: N_2  and  C_3
REMARK    3  A    between atoms: N_2  and  C_4
REMARK    4  A    between atoms: C_9  and  S_10
REMARK    5  A    between atoms: S_10  and  N_13
REMARK    6  A    between atoms: N_13  and  C_14
REMARK                            x       y       z     vdW  Elec       q    Type
REMARK                         _______ _______ _______ _____ _____    ______ ____
ROOT
ATOM      1  C   UNL     1      26.232   6.464  49.117  0.00  0.00    +0.000 A 
ATOM      2  C   UNL     1      27.214   5.515  48.777  0.00  0.00    +0.000 A 
ATOM      3  C   UNL     1      27.082   4.176  49.102  0.00  0.00    +0.000 A 
ATOM      4  C   UNL     1      26.016   3.767  49.886  0.00  0.00    +0.000 A 
ATOM      5  C   UNL     1      25.064   4.672  50.392  0.00  0.00    +0.000 A 
ATOM      6  C   UNL     1      24.049   4.302  51.321  0.00  0.00    +0.000 A 
ATOM      7  C   UNL     1      22.985   5.174  51.600  0.00  0.00    +0.000 A 
ATOM      8  C   UNL     1      22.941   6.422  50.997  0.00  0.00    +0.000 A 
ATOM      9  C   UNL     1      23.999   6.840  50.189  0.00  0.00    +0.000 A 
ATOM     10  C   UNL     1      25.114   6.016  49.906  0.00  0.00    +0.000 A 
ENDROOT
BRANCH   1  12
ATOM     11  C   UNL     1      26.497   7.980  47.203  0.00  0.00    +0.000 C 
ATOM     12  N   UNL     1      26.351   7.804  48.653  0.00  0.00    +0.000 N 
ATOM     13  C   UNL     1      27.252   8.654  49.443  0.00  0.00    +0.000 C 
ENDBRANCH   1  12
BRANCH   6  14
ATOM     14  S   UNL     1      24.072   2.732  52.196  0.00  0.00    +0.000 S 
ATOM     15  O   UNL     1      22.840   2.647  52.958  0.00  0.00    +0.000 OA
ATOM     16  O   UNL     1      24.441   1.658  51.311  0.00  0.00    +0.000 OA
BRANCH  14  17
ATOM     17  N   UNL     1      25.266   2.903  53.393  0.00  0.00    +0.000 N 
ATOM     18  H   UNL     1      25.223   3.657  54.025  0.00  0.00    +0.000 HD
BRANCH  17  19
ATOM     19  C   UNL     1      26.330   1.958  53.484  0.00  0.00    +0.000 A 
ATOM     20  C   UNL     1      27.602   2.284  53.058  0.00  0.00    +0.000 A 
ATOM     21  N   UNL     1      28.667   1.455  53.142  0.00  0.00    +0.000 NA
ATOM     22  C   UNL     1      28.435   0.248  53.688  0.00  0.00    +0.000 A 
ATOM     23 BR   UNL     1      29.893  -0.962  53.792  0.00  0.00    +0.000 Br
ATOM     24  N   UNL     1      27.244  -0.167  54.163  0.00  0.00    +0.000 NA
ATOM     25  C   UNL     1      26.215   0.703  54.048  0.00  0.00    +0.000 A 
ENDBRANCH  17  19
ENDBRANCH  14  17
ENDBRANCH   6  14
TORSDOF 4
ENDMDL
MODEL 3
REMARK VINA RESULT:    -7.540      3.492      4.070
REMARK INTER + INTRA:          -9.622
REMARK INTER:                  -9.363
REMARK INTRA:                  -0.259
REMARK UNBOUND:                -0.319
REMARK  Name = 
REMARK  6 active torsions:
REMARK  status: ('A' for Active; 'I' for Inactive)
REMARK    1  A    between atoms: C_1  and  N_2
REMARK    2  A    between atoms: N_2  and  C_3
REMARK    3  A    between atoms: N_2  and  C_4
REMARK    4  A    between atoms: C_9  and  S_10
REMARK    5  A    between atoms: S_10  and  N_13
REMARK    6  A    between atoms: N_13  and  C_14
REMARK                            x       y       z     vdW  Elec       q    Type
REMARK                         _______ _______ _______ _____ _____    ______ ____
ROOT
ATOM      1  C   UNL     1      25.462   0.017  53.208  0.00  0.00    +0.000 A 
ATOM      2  C   UNL     1      25.648   0.976  52.196  0.00  0.00    +0.000 A 
ATOM      3  C   UNL     1      24.604   1.751  51.721  0.00  0.00    +0.000 A 
ATOM      4  C   UNL     1      23.315   1.502  52.162  0.00  0.00    +0.000 A 
ATOM      5  C   UNL     1      23.016   0.465  53.066  0.00  0.00    +0.000 A 
ATOM      6  C   UNL     1      21.687   0.092  53.417  0.00  0.00    +0.000 A 
ATOM      7  C   UNL     1      21.451  -0.771  54.498  0.00  0.00    +0.000 A 
ATOM      8  C   UNL     1      22.521  -1.298  55.205  0.00  0.00    +0.000 A 
ATOM      9  C   UNL     1      23.826  -1.040  54.783  0.00  0.00    +0.000 A 
ATOM     10  C   UNL     1      24.119  -0.209  53.678  0.00  0.00    +0.000 A 
ENDROOT
BRANCH   1  12
ATOM     11  C   UNL     1      27.505   0.137  54.566  0.00  0.00    +0.000 C 
ATOM     12  N   UNL     1      26.586  -0.667  53.751  0.00  0.00    +0.000 N 
ATOM     13  C   UNL     1      27.266  -1.576  52.819  0.00  0.00    +0.000 C 
ENDBRANCH   1  12
BRANCH   6  14
ATOM     14  S   UNL     1      20.251   0.676  52.507  0.00  0.00    +0.000 S 
ATOM     15  O   UNL     1      20.629   0.745  51.108  0.00  0.00    +0.000 OA
ATOM     16  O   UNL     1      19.070  -0.051  52.894  0.00  0.00    +0.000 OA
BRANCH  14  17
ATOM     17  N   UNL     1      20.071   2.306  52.949  0.00  0.00    +0.000 N 
ATOM     18  H   UNL     1      20.088   2.561  53.900  0.00  0.00    +0.000 HD
BRANCH  17  19
ATOM     19  C   UNL     1      19.896   3.305  51.947  0.00  0.00    +0.000 A 
ATOM     20  C   UNL     1      18.663   3.504  51.357  0.00  0.00    +0.000 A 
ATOM     21  N   UNL     1      18.412   4.452  50.425  0.00  0.00    +0.000 NA
ATOM     22  C   UNL     1      19.449   5.236  50.084  0.00  0.00    +0.000 A 
ATOM     23 BR   UNL     1      19.151   6.555  48.753  0.00  0.00    +0.000 Br
ATOM     24  N   UNL     1      20.686   5.152  50.613  0.00  0.00    +0.000 NA
ATOM     25  C   UNL     1      20.880   4.183  51.536  0.00  0.00    +0.000 A 
ENDBRANCH  17  19
ENDBRANCH  14  17
ENDBRANCH   6  14
TORSDOF 4
ENDMDL
MODEL 4
REMARK VINA RESULT:    -7.310      4.073      8.072
REMARK INTER + INTRA:          -9.338
REMARK INTER:                  -9.382
REMARK INTRA:                   0.044
REMARK UNBOUND:                -0.319
REMARK  Name = 
REMARK  6 active torsions:
REMARK  status: ('A' for Active; 'I' for Inactive)
REMARK    1  A    between atoms: C_1  and  N_2
REMARK    2  A    between atoms: N_2  and  C_3
REMARK    3  A    between atoms: N_2  and  C_4
REMARK    4  A    between atoms: C_9  and  S_10
REMARK    5  A    between atoms: S_10  and  N_13
REMARK    6  A    between atoms: N_13  and  C_14
REMARK                            x       y       z     vdW  Elec       q    Type
REMARK                         _______ _______ _______ _____ _____    ______ ____
ROOT
ATOM      1  C   UNL     1      19.743  -0.060  52.948  0.00  0.00    +0.000 A 
ATOM      2  C   UNL     1      20.586  -1.005  53.561  0.00  0.00    +0.000 A 
ATOM      3  C   UNL     1      21.885  -0.699  53.928  0.00  0.00    +0.000 A 
ATOM      4  C   UNL     1      22.418   0.532  53.583  0.00  0.00    +0.000 A 
ATOM      5  C   UNL     1      21.693   1.485  52.842  0.00  0.00    +0.000 A 
ATOM      6  C   UNL     1      22.267   2.690  52.346  0.00  0.00    +0.000 A 
ATOM      7  C   UNL     1      21.450   3.711  51.834  0.00  0.00    +0.000 A 
ATOM      8  C   UNL     1      20.077   3.529  51.775  0.00  0.00    +0.000 A 
ATOM      9  C   UNL     1      19.523   2.301  52.138  0.00  0.00    +0.000 A 
ATOM     10  C   UNL     1      20.304   1.226  52.623  0.00  0.00    +0.000 A 
ENDROOT
BRANCH   1  12
ATOM     11  C   UNL     1      17.836  -1.526  53.445  0.00  0.00    +0.000 C 
ATOM     12  N   UNL     1      18.378  -0.381  52.702  0.00  0.00    +0.000 N 
ATOM     13  C   UNL     1      17.983  -0.355  51.288  0.00  0.00    +0.000 C 
ENDBRANCH   1  12
BRANCH   6  14
ATOM     14  S   UNL     1      24.042   2.974  52.323  0.00  0.00    +0.000 S 
ATOM     15  O   UNL     1      24.295   4.038  51.369  0.00  0.00    +0.000 OA
ATOM     16  O   UNL     1      24.562   3.075  53.662  0.00  0.00    +0.000 OA
BRANCH  14  17
ATOM     17  N   UNL     1      24.706   1.603  51.570  0.00  0.00    +0.000 N 
ATOM     18  H   UNL     1      24.269   1.220  50.774  0.00  0.00    +0.000 HD
BRANCH  17  19
ATOM     19  C   UNL     1      25.892   1.005  52.087  0.00  0.00    +0.000 A 
ATOM     20  C   UNL     1      27.047   1.747  52.241  0.00  0.00    +0.000 A 
ATOM     21  N   UNL     1      28.199   1.259  52.755  0.00  0.00    +0.000 NA
ATOM     22  C   UNL     1      28.178  -0.029  53.138  0.00  0.00    +0.000 A 
ATOM     23 BR   UNL     1      29.784  -0.764  53.830  0.00  0.00    +0.000 Br
ATOM     24  N   UNL     1      27.102  -0.838  53.062  0.00  0.00    +0.000 NA
ATOM     25  C   UNL     1      25.980  -0.298  52.536  0.00  0.00    +0.000 A 
ENDBRANCH  17  19
ENDBRANCH  14  17
ENDBRANCH   6  14
TORSDOF 4
ENDMDL
MODEL 5
REMARK VINA RESULT:    -7.304      3.807      8.053
REMARK INTER + INTRA:          -9.331
REMARK INTER:                  -9.426
REMARK INTRA:                   0.095
REMARK UNBOUND:                -0.319
REMARK  Name = 
REMARK  6 active torsions:
REMARK  status: ('A' for Active; 'I' for Inactive)
REMARK    1  A    between atoms: C_1  and  N_2
REMARK    2  A    between atoms: N_2  and  C_3
REMARK    3  A    between atoms: N_2  and  C_4
REMARK    4  A    between atoms: C_9  and  S_10
REMARK    5  A    between atoms: S_10  and  N_13
REMARK    6  A    between atoms: N_13  and  C_14
REMARK                            x       y       z     vdW  Elec       q    Type
REMARK                         _______ _______ _______ _____ _____    ______ ____
ROOT
ATOM      1  C   UNL     1      18.689  -0.304  52.368  0.00  0.00    +0.000 A 
ATOM      2  C   UNL     1      18.485   0.256  51.094  0.00  0.00    +0.000 A 
ATOM      3  C   UNL     1      19.518   0.826  50.370  0.00  0.00    +0.000 A 
ATOM      4  C   UNL     1      20.767   0.958  50.955  0.00  0.00    +0.000 A 
ATOM      5  C   UNL     1      21.024   0.556  52.279  0.00  0.00    +0.000 A 
ATOM      6  C   UNL     1      22.252   0.818  52.951  0.00  0.00    +0.000 A 
ATOM      7  C   UNL     1      22.548   0.186  54.169  0.00  0.00    +0.000 A 
ATOM      8  C   UNL     1      21.620  -0.670  54.743  0.00  0.00    +0.000 A 
ATOM      9  C   UNL     1      20.365  -0.828  54.155  0.00  0.00    +0.000 A 
ATOM     10  C   UNL     1      20.001  -0.185  52.949  0.00  0.00    +0.000 A 
ENDROOT
BRANCH   1  12
ATOM     11  C   UNL     1      17.846  -2.412  53.306  0.00  0.00    +0.000 C 
ATOM     12  N   UNL     1      17.625  -0.989  53.020  0.00  0.00    +0.000 N 
ATOM     13  C   UNL     1      16.286  -0.694  52.493  0.00  0.00    +0.000 C 
ENDBRANCH   1  12
BRANCH   6  14
ATOM     14  S   UNL     1      23.475   1.968  52.308  0.00  0.00    +0.000 S 
ATOM     15  O   UNL     1      24.235   1.264  51.292  0.00  0.00    +0.000 OA
ATOM     16  O   UNL     1      22.870   3.238  51.997  0.00  0.00    +0.000 OA
BRANCH  14  17
ATOM     17  N   UNL     1      24.598   2.180  53.566  0.00  0.00    +0.000 N 
ATOM     18  H   UNL     1      24.391   2.791  54.310  0.00  0.00    +0.000 HD
BRANCH  17  19
ATOM     19  C   UNL     1      25.837   1.476  53.545  0.00  0.00    +0.000 A 
ATOM     20  C   UNL     1      27.008   2.119  53.196  0.00  0.00    +0.000 A 
ATOM     21  N   UNL     1      28.225   1.527  53.185  0.00  0.00    +0.000 NA
ATOM     22  C   UNL     1      28.257   0.235  53.552  0.00  0.00    +0.000 A 
ATOM     23 BR   UNL     1      29.938  -0.645  53.516  0.00  0.00    +0.000 Br
ATOM     24  N   UNL     1      27.185  -0.484  53.940  0.00  0.00    +0.000 NA
ATOM     25  C   UNL     1      25.995   0.158  53.926  0.00  0.00    +0.000 A 
ENDBRANCH  17  19
ENDBRANCH  14  17
ENDBRANCH   6  14
TORSDOF 4
ENDMDL
MODEL 6
REMARK VINA RESULT:    -7.194      4.971      6.434
REMARK INTER + INTRA:          -9.194
REMARK INTER:                  -8.740
REMARK INTRA:                  -0.454
REMARK UNBOUND:                -0.319
REMARK  Name = 
REMARK  6 active torsions:
REMARK  status: ('A' for Active; 'I' for Inactive)
REMARK    1  A    between atoms: C_1  and  N_2
REMARK    2  A    between atoms: N_2  and  C_3
REMARK    3  A    between atoms: N_2  and  C_4
REMARK    4  A    between atoms: C_9  and  S_10
REMARK    5  A    between atoms: S_10  and  N_13
REMARK    6  A    between atoms: N_13  and  C_14
REMARK                            x       y       z     vdW  Elec       q    Type
REMARK                         _______ _______ _______ _____ _____    ______ ____
ROOT
ATOM      1  C   UNL     1      26.190   0.138  53.179  0.00  0.00    +0.000 A 
ATOM      2  C   UNL     1      25.146  -0.503  53.870  0.00  0.00    +0.000 A 
ATOM      3  C   UNL     1      23.815  -0.255  53.580  0.00  0.00    +0.000 A 
ATOM      4  C   UNL     1      23.490   0.735  52.669  0.00  0.00    +0.000 A 
ATOM      5  C   UNL     1      24.467   1.527  52.037  0.00  0.00    +0.000 A 
ATOM      6  C   UNL     1      24.155   2.648  51.215  0.00  0.00    +0.000 A 
ATOM      7  C   UNL     1      25.143   3.245  50.418  0.00  0.00    +0.000 A 
ATOM      8  C   UNL     1      26.444   2.765  50.459  0.00  0.00    +0.000 A 
ATOM      9  C   UNL     1      26.782   1.754  51.359  0.00  0.00    +0.000 A 
ATOM     10  C   UNL     1      25.834   1.145  52.212  0.00  0.00    +0.000 A 
ENDROOT
BRANCH   1  12
ATOM     11  C   UNL     1      27.934  -1.577  52.965  0.00  0.00    +0.000 C 
ATOM     12  N   UNL     1      27.540  -0.240  53.425  0.00  0.00    +0.000 N 
ATOM     13  C   UNL     1      28.041   0.094  54.765  0.00  0.00    +0.000 C 
ENDBRANCH   1  12
BRANCH   6  14
ATOM     14  S   UNL     1      22.510   3.372  51.159  0.00  0.00    +0.000 S 
ATOM     15  O   UNL     1      21.608   2.349  50.664  0.00  0.00    +0.000 OA
ATOM     16  O   UNL     1      22.210   4.055  52.390  0.00  0.00    +0.000 OA
BRANCH  14  17
ATOM     17  N   UNL     1      22.560   4.503  49.892  0.00  0.00    +0.000 N 
ATOM     18  H   UNL     1      23.153   4.350  49.121  0.00  0.00    +0.000 HD
BRANCH  17  19
ATOM     19  C   UNL     1      21.747   5.672  49.944  0.00  0.00    +0.000 A 
ATOM     20  C   UNL     1      22.287   6.894  50.291  0.00  0.00    +0.000 A 
ATOM     21  N   UNL     1      21.587   8.050  50.330  0.00  0.00    +0.000 NA
ATOM     22  C   UNL     1      20.289   7.968  49.993  0.00  0.00    +0.000 A 
ATOM     23 BR   UNL     1      19.260   9.561  50.070  0.00  0.00    +0.000 Br
ATOM     24  N   UNL     1      19.662   6.837  49.611  0.00  0.00    +0.000 NA
ATOM     25  C   UNL     1      20.410   5.711  49.595  0.00  0.00    +0.000 A 
ENDBRANCH  17  19
ENDBRANCH  14  17
ENDBRANCH   6  14
TORSDOF 4
ENDMDL
MODEL 7
REMARK VINA RESULT:    -7.151      6.123      9.015
REMARK INTER + INTRA:          -9.142
REMARK INTER:                  -9.288
REMARK INTRA:                   0.146
REMARK UNBOUND:                -0.319
REMARK  Name = 
REMARK  6 active torsions:
REMARK  status: ('A' for Active; 'I' for Inactive)
REMARK    1  A    between atoms: C_1  and  N_2
REMARK    2  A    between atoms: N_2  and  C_3
REMARK    3  A    between atoms: N_2  and  C_4
REMARK    4  A    between atoms: C_9  and  S_10
REMARK    5  A    between atoms: S_10  and  N_13
REMARK    6  A    between atoms: N_13  and  C_14
REMARK                            x       y       z     vdW  Elec       q    Type
REMARK                         _______ _______ _______ _____ _____    ______ ____
ROOT
ATOM      1  C   UNL     1      25.472   7.546  49.061  0.00  0.00    +0.000 A 
ATOM      2  C   UNL     1      24.472   8.161  49.835  0.00  0.00    +0.000 A 
ATOM      3  C   UNL     1      23.897   7.530  50.925  0.00  0.00    +0.000 A 
ATOM      4  C   UNL     1      24.224   6.213  51.199  0.00  0.00    +0.000 A 
ATOM      5  C   UNL     1      25.107   5.473  50.391  0.00  0.00    +0.000 A 
ATOM      6  C   UNL     1      25.342   4.078  50.562  0.00  0.00    +0.000 A 
ATOM      7  C   UNL     1      26.405   3.447  49.898  0.00  0.00    +0.000 A 
ATOM      8  C   UNL     1      27.211   4.178  49.038  0.00  0.00    +0.000 A 
ATOM      9  C   UNL     1      26.905   5.512  48.767  0.00  0.00    +0.000 A 
ATOM     10  C   UNL     1      25.822   6.186  49.378  0.00  0.00    +0.000 A 
ENDROOT
BRANCH   1  12
ATOM     11  C   UNL     1      27.173   9.211  48.454  0.00  0.00    +0.000 C 
ATOM     12  N   UNL     1      26.121   8.280  48.028  0.00  0.00    +0.000 N 
ATOM     13  C   UNL     1      25.223   8.833  47.005  0.00  0.00    +0.000 C 
ENDBRANCH   1  12
BRANCH   6  14
ATOM     14  S   UNL     1      24.301   3.048  51.604  0.00  0.00    +0.000 S 
ATOM     15  O   UNL     1      23.144   3.841  51.974  0.00  0.00    +0.000 OA
ATOM     16  O   UNL     1      24.117   1.746  51.016  0.00  0.00    +0.000 OA
BRANCH  14  17
ATOM     17  N   UNL     1      25.151   2.883  53.066  0.00  0.00    +0.000 N 
ATOM     18  H   UNL     1      24.925   3.458  53.832  0.00  0.00    +0.000 HD
BRANCH  17  19
ATOM     19  C   UNL     1      26.191   1.915  53.184  0.00  0.00    +0.000 A 
ATOM     20  C   UNL     1      27.518   2.296  53.154  0.00  0.00    +0.000 A 
ATOM     21  N   UNL     1      28.556   1.442  53.293  0.00  0.00    +0.000 NA
ATOM     22  C   UNL     1      28.238   0.149  53.480  0.00  0.00    +0.000 A 
ATOM     23 BR   UNL     1      29.666  -1.090  53.643  0.00  0.00    +0.000 Br
ATOM     24  N   UNL     1      26.981  -0.332  53.556  0.00  0.00    +0.000 NA
ATOM     25  C   UNL     1      25.983   0.567  53.405  0.00  0.00    +0.000 A 
ENDBRANCH  17  19
ENDBRANCH  14  17
ENDBRANCH   6  14
TORSDOF 4
ENDMDL
MODEL 8
REMARK VINA RESULT:    -7.076      1.944      2.254
REMARK INTER + INTRA:          -9.049
REMARK INTER:                  -8.594
REMARK INTRA:                  -0.455
REMARK UNBOUND:                -0.319
REMARK  Name = 
REMARK  6 active torsions:
REMARK  status: ('A' for Active; 'I' for Inactive)
REMARK    1  A    between atoms: C_1  and  N_2
REMARK    2  A    between atoms: N_2  and  C_3
REMARK    3  A    between atoms: N_2  and  C_4
REMARK    4  A    between atoms: C_9  and  S_10
REMARK    5  A    between atoms: S_10  and  N_13
REMARK    6  A    between atoms: N_13  and  C_14
REMARK                            x       y       z     vdW  Elec       q    Type
REMARK                         _______ _______ _______ _____ _____    ______ ____
ROOT
ATOM      1  C   UNL     1      24.996   0.143  53.120  0.00  0.00    +0.000 A 
ATOM      2  C   UNL     1      25.360   1.155  52.213  0.00  0.00    +0.000 A 
ATOM      3  C   UNL     1      24.423   2.008  51.655  0.00  0.00    +0.000 A 
ATOM      4  C   UNL     1      23.077   1.795  51.898  0.00  0.00    +0.000 A 
ATOM      5  C   UNL     1      22.614   0.718  52.677  0.00  0.00    +0.000 A 
ATOM      6  C   UNL     1      21.235   0.389  52.817  0.00  0.00    +0.000 A 
ATOM      7  C   UNL     1      20.817  -0.530  53.791  0.00  0.00    +0.000 A 
ATOM      8  C   UNL     1      21.757  -1.152  54.600  0.00  0.00    +0.000 A 
ATOM      9  C   UNL     1      23.116  -0.932  54.379  0.00  0.00    +0.000 A 
ATOM     10  C   UNL     1      23.594  -0.047  53.385  0.00  0.00    +0.000 A 
ENDROOT
BRANCH   1  12
ATOM     11  C   UNL     1      26.774   0.052  54.812  0.00  0.00    +0.000 C 
ATOM     12  N   UNL     1      26.006  -0.628  53.763  0.00  0.00    +0.000 N 
ATOM     13  C   UNL     1      26.831  -1.441  52.859  0.00  0.00    +0.000 C 
ENDBRANCH   1  12
BRANCH   6  14
ATOM     14  S   UNL     1      19.965   1.098  51.761  0.00  0.00    +0.000 S 
ATOM     15  O   UNL     1      19.670   2.423  52.276  0.00  0.00    +0.000 OA
ATOM     16  O   UNL     1      20.301   0.929  50.371  0.00  0.00    +0.000 OA
BRANCH  14  17
ATOM     17  N   UNL     1      18.553   0.218  52.105  0.00  0.00    +0.000 N 
ATOM     18  H   UNL     1      18.556  -0.454  52.824  0.00  0.00    +0.000 HD
BRANCH  17  19
ATOM     19  C   UNL     1      17.364   0.449  51.352  0.00  0.00    +0.000 A 
ATOM     20  C   UNL     1      17.015  -0.385  50.309  0.00  0.00    +0.000 A 
ATOM     21  N   UNL     1      15.889  -0.249  49.572  0.00  0.00    +0.000 NA
ATOM     22  C   UNL     1      15.078   0.768  49.913  0.00  0.00    +0.000 A 
ATOM     23 BR   UNL     1      13.505   1.018  48.882  0.00  0.00    +0.000 Br
ATOM     24  N   UNL     1      15.302   1.625  50.928  0.00  0.00    +0.000 NA
ATOM     25  C   UNL     1      16.446   1.444  51.627  0.00  0.00    +0.000 A 
ENDBRANCH  17  19
ENDBRANCH  14  17
ENDBRANCH   6  14
TORSDOF 4
ENDMDL
MODEL 9
REMARK VINA RESULT:    -7.036      2.013      3.531
REMARK INTER + INTRA:          -8.999
REMARK INTER:                  -8.835
REMARK INTRA:                  -0.164
REMARK UNBOUND:                -0.319
REMARK  Name = 
REMARK  6 active torsions:
REMARK  status: ('A' for Active; 'I' for Inactive)
REMARK    1  A    between atoms: C_1  and  N_2
REMARK    2  A    between atoms: N_2  and  C_3
REMARK    3  A    between atoms: N_2  and  C_4
REMARK    4  A    between atoms: C_9  and  S_10
REMARK    5  A    between atoms: S_10  and  N_13
REMARK    6  A    between atoms: N_13  and  C_14
REMARK                            x       y       z     vdW  Elec       q    Type
REMARK                         _______ _______ _______ _____ _____    ______ ____
ROOT
ATOM      1  C   UNL     1      26.604   0.227  53.282  0.00  0.00    +0.000 A 
ATOM      2  C   UNL     1      25.717  -0.594  54.002  0.00  0.00    +0.000 A 
ATOM      3  C   UNL     1      24.363  -0.636  53.716  0.00  0.00    +0.000 A 
ATOM      4  C   UNL     1      23.838   0.237  52.778  0.00  0.00    +0.000 A 
ATOM      5  C   UNL     1      24.629   1.193  52.114  0.00  0.00    +0.000 A 
ATOM      6  C   UNL     1      24.089   2.198  51.261  0.00  0.00    +0.000 A 
ATOM      7  C   UNL     1      24.930   2.961  50.436  0.00  0.00    +0.000 A 
ATOM      8  C   UNL     1      26.302   2.762  50.481  0.00  0.00    +0.000 A 
ATOM      9  C   UNL     1      26.845   1.872  51.408  0.00  0.00    +0.000 A 
ATOM     10  C   UNL     1      26.045   1.107  52.288  0.00  0.00    +0.000 A 
ENDROOT
BRANCH   1  12
ATOM     11  C   UNL     1      28.632  -1.159  53.276  0.00  0.00    +0.000 C 
ATOM     12  N   UNL     1      28.004   0.144  53.527  0.00  0.00    +0.000 N 
ATOM     13  C   UNL     1      28.453   0.785  54.770  0.00  0.00    +0.000 C 
ENDBRANCH   1  12
BRANCH   6  14
ATOM     14  S   UNL     1      22.330   2.564  51.198  0.00  0.00    +0.000 S 
ATOM     15  O   UNL     1      21.856   2.630  52.567  0.00  0.00    +0.000 OA
ATOM     16  O   UNL     1      22.066   3.656  50.296  0.00  0.00    +0.000 OA
BRANCH  14  17
ATOM     17  N   UNL     1      21.599   1.154  50.593  0.00  0.00    +0.000 N 
ATOM     18  H   UNL     1      22.082   0.590  49.946  0.00  0.00    +0.000 HD
BRANCH  17  19
ATOM     19  C   UNL     1      20.290   0.787  51.019  0.00  0.00    +0.000 A 
ATOM     20  C   UNL     1      19.182   1.121  50.265  0.00  0.00    +0.000 A 
ATOM     21  N   UNL     1      17.914   0.780  50.587  0.00  0.00    +0.000 NA
ATOM     22  C   UNL     1      17.761   0.063  51.714  0.00  0.00    +0.000 A 
ATOM     23 BR   UNL     1      15.994  -0.405  52.224  0.00  0.00    +0.000 Br
ATOM     24  N   UNL     1      18.770  -0.343  52.511  0.00  0.00    +0.000 NA
ATOM     25  C   UNL     1      20.015   0.032  52.143  0.00  0.00    +0.000 A 
ENDBRANCH  17  19
ENDBRANCH  14  17
ENDBRANCH   6  14
TORSDOF 4
ENDMDL
