MODEL 1
REMARK VINA RESULT:    -7.746      0.000      0.000
REMARK INTER + INTRA:          -9.782
REMARK INTER:                  -9.104
REMARK INTRA:                  -0.678
REMARK UNBOUND:                -0.678
REMARK  Name = 
REMARK  6 active torsions:
REMARK  status: ('A' for Active; 'I' for Inactive)
REMARK    1  A    between atoms: C_1  and  C_2
REMARK    2  A    between atoms: N_9  and  S_10
REMARK    3  A    between atoms: S_10  and  C_13
REMARK    4  A    between atoms: C_18  and  N_19
REMARK    5  A    between atoms: N_19  and  C_20
REMARK    6  A    between atoms: N_19  and  C_21
REMARK                            x       y       z     vdW  Elec       q    Type
REMARK                         _______ _______ _______ _____ _____    ______ ____
ROOT
ATOM      1  S   UNL     1      22.946   4.112  51.581  0.00  0.00    +0.000 S 
ATOM      2  O   UNL     1      21.964   4.627  52.514  0.00  0.00    +0.000 OA
ATOM      3  O   UNL     1      23.269   4.889  50.397  0.00  0.00    +0.000 OA
ENDROOT
BRANCH   1  12
ATOM      4  C   UNL     1      26.433   3.251  50.321  0.00  0.00    +0.000 C 
ATOM      5  C   UNL     1      25.943   2.345  51.402  0.00  0.00    +0.000 A 
ATOM      6  C   UNL     1      26.445   1.035  51.457  0.00  0.00    +0.000 A 
ATOM      7  C   UNL     1      25.973   0.192  52.443  0.00  0.00    +0.000 A 
ATOM      8 CL   UNL     1      26.522  -1.423  52.586  0.00  0.00    +0.000 Cl
ATOM      9  N   UNL     1      25.074   0.569  53.363  0.00  0.00    +0.000 NA
ATOM     10  N   UNL     1      24.573   1.832  53.306  0.00  0.00    +0.000 NA
ATOM     11  C   UNL     1      25.004   2.695  52.362  0.00  0.00    +0.000 A 
ATOM     12  N   UNL     1      24.366   3.943  52.457  0.00  0.00    +0.000 N 
ATOM     13  H   UNL     1      24.731   4.675  53.005  0.00  0.00    +0.000 HD
ENDBRANCH   1  12
BRANCH   1  14
ATOM     14  C   UNL     1      22.404   2.499  51.052  0.00  0.00    +0.000 A 
ATOM     15  C   UNL     1      22.755   2.109  49.757  0.00  0.00    +0.000 A 
ATOM     16  C   UNL     1      21.967   1.173  49.093  0.00  0.00    +0.000 A 
ATOM     17  C   UNL     1      20.718   0.842  49.628  0.00  0.00    +0.000 A 
ATOM     18  C   UNL     1      20.337   1.291  50.911  0.00  0.00    +0.000 A 
ATOM     19  C   UNL     1      19.213   0.780  51.566  0.00  0.00    +0.000 A 
ATOM     20  C   UNL     1      19.547  -0.165  52.510  0.00  0.00    +0.000 A 
ATOM     21  C   UNL     1      20.713   0.069  53.233  0.00  0.00    +0.000 A 
ATOM     22  C   UNL     1      21.504   1.188  52.928  0.00  0.00    +0.000 A 
ATOM     23  C   UNL     1      21.349   1.825  51.691  0.00  0.00    +0.000 A 
BRANCH  19  24
ATOM     24  N   UNL     1      17.985   1.429  51.624  0.00  0.00    +0.000 N 
ATOM     25  C   UNL     1      16.730   0.684  51.738  0.00  0.00    +0.000 C 
ATOM     26  C   UNL     1      17.861   2.860  51.381  0.00  0.00    +0.000 C 
ENDBRANCH  19  24
ENDBRANCH   1  14
TORSDOF 3
ENDMDL
MODEL 2
REMARK VINA RESULT:    -7.742      3.071      4.731
REMARK INTER + INTRA:          -9.778
REMARK INTER:                  -8.786
REMARK INTRA:                  -0.991
REMARK UNBOUND:                -0.678
REMARK  Name = 
REMARK  6 active torsions:
REMARK  status: ('A' for Active; 'I' for Inactive)
REMARK    1  A    between atoms: C_1  and  C_2
REMARK    2  A    between atoms: N_9  and  S_10
REMARK    3  A    between atoms: S_10  and  C_13
REMARK    4  A    between atoms: C_18  and  N_19
REMARK    5  A    between atoms: N_19  and  C_20
REMARK    6  A    between atoms: N_19  and  C_21
REMARK                            x       y       z     vdW  Elec       q    Type
REMARK                         _______ _______ _______ _____ _____    ______ ____
ROOT
ATOM      1  S   UNL     1      23.293   1.317  52.658  0.00  0.00    +0.000 S 
ATOM      2  O   UNL     1      23.922   0.107  52.171  0.00  0.00    +0.000 OA
ATOM      3  O   UNL     1      22.220   1.212  53.632  0.00  0.00    +0.000 OA
ENDROOT
BRANCH   1  12
ATOM      4  C   UNL     1      26.580   2.499  51.145  0.00  0.00    +0.000 C 
ATOM      5  C   UNL     1      26.745   1.716  52.405  0.00  0.00    +0.000 A 
ATOM      6  C   UNL     1      27.944   1.014  52.606  0.00  0.00    +0.000 A 
ATOM      7  C   UNL     1      28.086   0.271  53.761  0.00  0.00    +0.000 A 
ATOM      8 CL   UNL     1      29.509  -0.621  54.090  0.00  0.00    +0.000 Cl
ATOM      9  N   UNL     1      27.142   0.204  54.711  0.00  0.00    +0.000 NA
ATOM     10  N   UNL     1      25.971   0.870  54.515  0.00  0.00    +0.000 NA
ATOM     11  C   UNL     1      25.786   1.612  53.403  0.00  0.00    +0.000 A 
ATOM     12  N   UNL     1      24.516   2.213  53.375  0.00  0.00    +0.000 N 
ATOM     13  H   UNL     1      24.355   3.108  53.754  0.00  0.00    +0.000 HD
ENDBRANCH   1  12
BRANCH   1  14
ATOM     14  C   UNL     1      22.674   2.217  51.251  0.00  0.00    +0.000 A 
ATOM     15  C   UNL     1      22.375   1.473  50.107  0.00  0.00    +0.000 A 
ATOM     16  C   UNL     1      22.414   2.094  48.862  0.00  0.00    +0.000 A 
ATOM     17  C   UNL     1      22.993   3.364  48.761  0.00  0.00    +0.000 A 
ATOM     18  C   UNL     1      23.354   4.090  49.916  0.00  0.00    +0.000 A 
ATOM     19  C   UNL     1      23.702   5.443  49.856  0.00  0.00    +0.000 A 
ATOM     20  C   UNL     1      22.662   6.262  50.238  0.00  0.00    +0.000 A 
ATOM     21  C   UNL     1      21.868   5.805  51.284  0.00  0.00    +0.000 A 
ATOM     22  C   UNL     1      22.113   4.539  51.838  0.00  0.00    +0.000 A 
ATOM     23  C   UNL     1      22.863   3.604  51.116  0.00  0.00    +0.000 A 
BRANCH  19  24
ATOM     24  N   UNL     1      25.010   5.911  49.873  0.00  0.00    +0.000 N 
ATOM     25  C   UNL     1      25.365   7.166  50.540  0.00  0.00    +0.000 C 
ATOM     26  C   UNL     1      26.058   5.293  49.073  0.00  0.00    +0.000 C 
ENDBRANCH  19  24
ENDBRANCH   1  14
TORSDOF 3
ENDMDL
MODEL 3
REMARK VINA RESULT:    -7.702      3.146      5.717
REMARK INTER + INTRA:          -9.730
REMARK INTER:                  -9.213
REMARK INTRA:                  -0.517
REMARK UNBOUND:                -0.678
REMARK  Name = 
REMARK  6 active torsions:
REMARK  status: ('A' for Active; 'I' for Inactive)
REMARK    1  A    between atoms: C_1  and  C_2
REMARK    2  A    between atoms: N_9  and  S_10
REMARK    3  A    between atoms: S_10  and  C_13
REMARK    4  A    between atoms: C_18  and  N_19
REMARK    5  A    between atoms: N_19  and  C_20
REMARK    6  A    between atoms: N_19  and  C_21
REMARK                            x       y       z     vdW  Elec       q    Type
REMARK                         _______ _______ _______ _____ _____    ______ ____
ROOT
ATOM      1  S   UNL     1      23.196   2.796  52.155  0.00  0.00    +0.000 S 
ATOM      2  O   UNL     1      21.906   2.257  52.538  0.00  0.00    +0.000 OA
ATOM      3  O   UNL     1      24.022   3.436  53.164  0.00  0.00    +0.000 OA
ENDROOT
BRANCH   1  12
ATOM      4  C   UNL     1      23.654  -0.670  53.661  0.00  0.00    +0.000 C 
ATOM      5  C   UNL     1      24.938   0.029  53.358  0.00  0.00    +0.000 A 
ATOM      6  C   UNL     1      26.076  -0.304  54.110  0.00  0.00    +0.000 A 
ATOM      7  C   UNL     1      27.257   0.361  53.844  0.00  0.00    +0.000 A 
ATOM      8 CL   UNL     1      28.694   0.026  54.712  0.00  0.00    +0.000 Cl
ATOM      9  N   UNL     1      27.375   1.294  52.889  0.00  0.00    +0.000 NA
ATOM     10  N   UNL     1      26.272   1.632  52.167  0.00  0.00    +0.000 NA
ATOM     11  C   UNL     1      25.095   1.009  52.388  0.00  0.00    +0.000 A 
ATOM     12  N   UNL     1      24.075   1.499  51.556  0.00  0.00    +0.000 N 
ATOM     13  H   UNL     1      23.887   1.104  50.673  0.00  0.00    +0.000 HD
ENDBRANCH   1  12
BRANCH   1  14
ATOM     14  C   UNL     1      22.930   3.965  50.837  0.00  0.00    +0.000 A 
ATOM     15  C   UNL     1      22.017   3.602  49.844  0.00  0.00    +0.000 A 
ATOM     16  C   UNL     1      22.142   4.152  48.572  0.00  0.00    +0.000 A 
ATOM     17  C   UNL     1      23.312   4.848  48.250  0.00  0.00    +0.000 A 
ATOM     18  C   UNL     1      24.266   5.160  49.243  0.00  0.00    +0.000 A 
ATOM     19  C   UNL     1      25.312   6.056  49.003  0.00  0.00    +0.000 A 
ATOM     20  C   UNL     1      25.054   7.305  49.524  0.00  0.00    +0.000 A 
ATOM     21  C   UNL     1      24.389   7.340  50.745  0.00  0.00    +0.000 A 
ATOM     22  C   UNL     1      23.965   6.140  51.337  0.00  0.00    +0.000 A 
ATOM     23  C   UNL     1      23.855   4.985  50.554  0.00  0.00    +0.000 A 
BRANCH  19  24
ATOM     24  N   UNL     1      26.614   5.670  48.711  0.00  0.00    +0.000 N 
ATOM     25  C   UNL     1      27.106   4.329  49.033  0.00  0.00    +0.000 C 
ATOM     26  C   UNL     1      27.615   6.625  48.254  0.00  0.00    +0.000 C 
ENDBRANCH  19  24
ENDBRANCH   1  14
TORSDOF 3
ENDMDL
MODEL 4
REMARK VINA RESULT:    -7.695      2.854      6.213
REMARK INTER + INTRA:          -9.723
REMARK INTER:                  -8.944
REMARK INTRA:                  -0.778
REMARK UNBOUND:                -0.678
REMARK  Name = 
REMARK  6 active torsions:
REMARK  status: ('A' for Active; 'I' for Inactive)
REMARK    1  A    between atoms: C_1  and  C_2
REMARK    2  A    between atoms: N_9  and  S_10
REMARK    3  A    between atoms: S_10  and  C_13
REMARK    4  A    between atoms: C_18  and  N_19
REMARK    5  A    between atoms: N_19  and  C_20
REMARK    6  A    between atoms: N_19  and  C_21
REMARK                            x       y       z     vdW  Elec       q    Type
REMARK                         _______ _______ _______ _____ _____    ______ ____
ROOT
ATOM      1  S   UNL     1      22.152   1.817  50.924  0.00  0.00    +0.000 S 
ATOM      2  O   UNL     1      22.290   0.404  50.634  0.00  0.00    +0.000 OA
ATOM      3  O   UNL     1      21.348   2.645  50.040  0.00  0.00    +0.000 OA
ENDROOT
BRANCH   1  12
ATOM      4  C   UNL     1      22.767  -0.393  53.961  0.00  0.00    +0.000 C 
ATOM      5  C   UNL     1      21.332  -0.306  53.562  0.00  0.00    +0.000 A 
ATOM      6  C   UNL     1      20.481  -1.377  53.879  0.00  0.00    +0.000 A 
ATOM      7  C   UNL     1      19.159  -1.305  53.488  0.00  0.00    +0.000 A 
ATOM      8 CL   UNL     1      18.049  -2.564  53.825  0.00  0.00    +0.000 Cl
ATOM      9  N   UNL     1      18.642  -0.253  52.837  0.00  0.00    +0.000 NA
ATOM     10  N   UNL     1      19.464   0.782  52.514  0.00  0.00    +0.000 NA
ATOM     11  C   UNL     1      20.765   0.759  52.876  0.00  0.00    +0.000 A 
ATOM     12  N   UNL     1      21.452   1.906  52.446  0.00  0.00    +0.000 N 
ATOM     13  H   UNL     1      21.520   2.714  53.005  0.00  0.00    +0.000 HD
ENDBRANCH   1  12
BRANCH   1  14
ATOM     14  C   UNL     1      23.786   2.521  51.003  0.00  0.00    +0.000 A 
ATOM     15  C   UNL     1      24.256   3.158  49.852  0.00  0.00    +0.000 A 
ATOM     16  C   UNL     1      25.628   3.245  49.635  0.00  0.00    +0.000 A 
ATOM     17  C   UNL     1      26.487   2.479  50.432  0.00  0.00    +0.000 A 
ATOM     18  C   UNL     1      26.000   1.783  51.559  0.00  0.00    +0.000 A 
ATOM     19  C   UNL     1      26.862   1.219  52.504  0.00  0.00    +0.000 A 
ATOM     20  C   UNL     1      26.985   2.005  53.628  0.00  0.00    +0.000 A 
ATOM     21  C   UNL     1      25.833   2.656  54.056  0.00  0.00    +0.000 A 
ATOM     22  C   UNL     1      24.652   2.539  53.305  0.00  0.00    +0.000 A 
ATOM     23  C   UNL     1      24.721   2.118  51.972  0.00  0.00    +0.000 A 
BRANCH  19  24
ATOM     24  N   UNL     1      27.188  -0.131  52.550  0.00  0.00    +0.000 N 
ATOM     25  C   UNL     1      26.241  -1.163  52.122  0.00  0.00    +0.000 C 
ATOM     26  C   UNL     1      28.401  -0.607  53.202  0.00  0.00    +0.000 C 
ENDBRANCH  19  24
ENDBRANCH   1  14
TORSDOF 3
ENDMDL
MODEL 5
REMARK VINA RESULT:    -7.675      3.319      6.100
REMARK INTER + INTRA:          -9.699
REMARK INTER:                  -8.961
REMARK INTRA:                  -0.738
REMARK UNBOUND:                -0.678
REMARK  Name = 
REMARK  6 active torsions:
REMARK  status: ('A' for Active; 'I' for Inactive)
REMARK    1  A    between atoms: C_1  and  C_2
REMARK    2  A    between atoms: N_9  and  S_10
REMARK    3  A    between atoms: S_10  and  C_13
REMARK    4  A    between atoms: C_18  and  N_19
REMARK    5  A    between atoms: N_19  and  C_20
REMARK    6  A    between atoms: N_19  and  C_21
REMARK                            x       y       z     vdW  Elec       q    Type
REMARK                         _______ _______ _______ _____ _____    ______ ____
ROOT
ATOM      1  S   UNL     1      23.901   2.523  52.156  0.00  0.00    +0.000 S 
ATOM      2  O   UNL     1      22.613   3.169  52.307  0.00  0.00    +0.000 OA
ATOM      3  O   UNL     1      24.882   2.645  53.221  0.00  0.00    +0.000 OA
ENDROOT
BRANCH   1  12
ATOM      4  C   UNL     1      21.573   0.815  49.675  0.00  0.00    +0.000 C 
ATOM      5  C   UNL     1      21.294   0.467  51.099  0.00  0.00    +0.000 A 
ATOM      6  C   UNL     1      19.989   0.088  51.454  0.00  0.00    +0.000 A 
ATOM      7  C   UNL     1      19.728  -0.210  52.776  0.00  0.00    +0.000 A 
ATOM      8 CL   UNL     1      18.167  -0.678  53.303  0.00  0.00    +0.000 Cl
ATOM      9  N   UNL     1      20.663  -0.174  53.736  0.00  0.00    +0.000 NA
ATOM     10  N   UNL     1      21.925   0.207  53.402  0.00  0.00    +0.000 NA
ATOM     11  C   UNL     1      22.232   0.507  52.122  0.00  0.00    +0.000 A 
ATOM     12  N   UNL     1      23.576   0.888  51.977  0.00  0.00    +0.000 N 
ATOM     13  H   UNL     1      24.285   0.233  51.781  0.00  0.00    +0.000 HD
ENDBRANCH   1  12
BRANCH   1  14
ATOM     14  C   UNL     1      24.642   3.128  50.652  0.00  0.00    +0.000 A 
ATOM     15  C   UNL     1      25.968   2.762  50.410  0.00  0.00    +0.000 A 
ATOM     16  C   UNL     1      26.762   3.575  49.607  0.00  0.00    +0.000 A 
ATOM     17  C   UNL     1      26.299   4.854  49.277  0.00  0.00    +0.000 A 
ATOM     18  C   UNL     1      24.978   5.247  49.580  0.00  0.00    +0.000 A 
ATOM     19  C   UNL     1      24.417   6.412  49.049  0.00  0.00    +0.000 A 
ATOM     20  C   UNL     1      23.593   6.150  47.977  0.00  0.00    +0.000 A 
ATOM     21  C   UNL     1      22.822   4.995  48.058  0.00  0.00    +0.000 A 
ATOM     22  C   UNL     1      22.967   4.142  49.164  0.00  0.00    +0.000 A 
ATOM     23  C   UNL     1      24.116   4.231  49.958  0.00  0.00    +0.000 A 
BRANCH  19  24
ATOM     24  N   UNL     1      24.302   7.608  49.749  0.00  0.00    +0.000 N 
ATOM     25  C   UNL     1      25.396   8.581  49.787  0.00  0.00    +0.000 C 
ATOM     26  C   UNL     1      23.178   7.874  50.637  0.00  0.00    +0.000 C 
ENDBRANCH  19  24
ENDBRANCH   1  14
TORSDOF 3
ENDMDL
MODEL 6
REMARK VINA RESULT:    -7.675      3.351      4.417
REMARK INTER + INTRA:          -9.699
REMARK INTER:                  -9.157
REMARK INTRA:                  -0.542
REMARK UNBOUND:                -0.678
REMARK  Name = 
REMARK  6 active torsions:
REMARK  status: ('A' for Active; 'I' for Inactive)
REMARK    1  A    between atoms: C_1  and  C_2
REMARK    2  A    between atoms: N_9  and  S_10
REMARK    3  A    between atoms: S_10  and  C_13
REMARK    4  A    between atoms: C_18  and  N_19
REMARK    5  A    between atoms: N_19  and  C_20
REMARK    6  A    between atoms: N_19  and  C_21
REMARK                            x       y       z     vdW  Elec       q    Type
REMARK                         _______ _______ _______ _____ _____    ______ ____
ROOT
ATOM      1  S   UNL     1      23.432   4.852  49.627  0.00  0.00    +0.000 S 
ATOM      2  O   UNL     1      22.341   5.419  50.394  0.00  0.00    +0.000 OA
ATOM      3  O   UNL     1      23.663   5.325  48.272  0.00  0.00    +0.000 OA
ENDROOT
BRANCH   1  12
ATOM      4  C   UNL     1      25.228   8.175  50.100  0.00  0.00    +0.000 C 
ATOM      5  C   UNL     1      26.103   7.088  49.570  0.00  0.00    +0.000 A 
ATOM      6  C   UNL     1      27.214   7.443  48.789  0.00  0.00    +0.000 A 
ATOM      7  C   UNL     1      28.009   6.435  48.280  0.00  0.00    +0.000 A 
ATOM      8 CL   UNL     1      29.382   6.771  47.313  0.00  0.00    +0.000 Cl
ATOM      9  N   UNL     1      27.783   5.134  48.511  0.00  0.00    +0.000 NA
ATOM     10  N   UNL     1      26.699   4.783  49.254  0.00  0.00    +0.000 NA
ATOM     11  C   UNL     1      25.893   5.731  49.776  0.00  0.00    +0.000 A 
ATOM     12  N   UNL     1      24.825   5.176  50.501  0.00  0.00    +0.000 N 
ATOM     13  H   UNL     1      24.892   4.988  51.466  0.00  0.00    +0.000 HD
ENDBRANCH   1  12
BRANCH   1  14
ATOM     14  C   UNL     1      23.193   3.088  49.561  0.00  0.00    +0.000 A 
ATOM     15  C   UNL     1      22.683   2.563  48.371  0.00  0.00    +0.000 A 
ATOM     16  C   UNL     1      21.984   1.360  48.403  0.00  0.00    +0.000 A 
ATOM     17  C   UNL     1      21.592   0.841  49.642  0.00  0.00    +0.000 A 
ATOM     18  C   UNL     1      22.057   1.412  50.846  0.00  0.00    +0.000 A 
ATOM     19  C   UNL     1      21.883   0.773  52.078  0.00  0.00    +0.000 A 
ATOM     20  C   UNL     1      23.027   0.126  52.492  0.00  0.00    +0.000 A 
ATOM     21  C   UNL     1      24.232   0.762  52.214  0.00  0.00    +0.000 A 
ATOM     22  C   UNL     1      24.230   1.964  51.488  0.00  0.00    +0.000 A 
ATOM     23  C   UNL     1      23.106   2.307  50.727  0.00  0.00    +0.000 A 
BRANCH  19  24
ATOM     24  N   UNL     1      20.893   1.107  52.994  0.00  0.00    +0.000 N 
ATOM     25  C   UNL     1      20.055   2.294  52.816  0.00  0.00    +0.000 C 
ATOM     26  C   UNL     1      20.762   0.417  54.271  0.00  0.00    +0.000 C 
ENDBRANCH  19  24
ENDBRANCH   1  14
TORSDOF 3
ENDMDL
MODEL 7
REMARK VINA RESULT:    -7.510      3.287      5.728
REMARK INTER + INTRA:          -9.505
REMARK INTER:                  -8.856
REMARK INTRA:                  -0.649
REMARK UNBOUND:                -0.678
REMARK  Name = 
REMARK  6 active torsions:
REMARK  status: ('A' for Active; 'I' for Inactive)
REMARK    1  A    between atoms: C_1  and  C_2
REMARK    2  A    between atoms: N_9  and  S_10
REMARK    3  A    between atoms: S_10  and  C_13
REMARK    4  A    between atoms: C_18  and  N_19
REMARK    5  A    between atoms: N_19  and  C_20
REMARK    6  A    between atoms: N_19  and  C_21
REMARK                            x       y       z     vdW  Elec       q    Type
REMARK                         _______ _______ _______ _____ _____    ______ ____
ROOT
ATOM      1  S   UNL     1      22.852   3.599  52.149  0.00  0.00    +0.000 S 
ATOM      2  O   UNL     1      24.033   4.107  52.818  0.00  0.00    +0.000 OA
ATOM      3  O   UNL     1      21.547   3.839  52.741  0.00  0.00    +0.000 OA
ENDROOT
BRANCH   1  12
ATOM      4  C   UNL     1      25.690   3.888  49.629  0.00  0.00    +0.000 C 
ATOM      5  C   UNL     1      25.066   5.197  49.985  0.00  0.00    +0.000 A 
ATOM      6  C   UNL     1      25.844   6.361  49.882  0.00  0.00    +0.000 A 
ATOM      7  C   UNL     1      25.273   7.567  50.234  0.00  0.00    +0.000 A 
ATOM      8 CL   UNL     1      26.144   9.038  50.145  0.00  0.00    +0.000 Cl
ATOM      9  N   UNL     1      24.004   7.684  50.652  0.00  0.00    +0.000 NA
ATOM     10  N   UNL     1      23.250   6.558  50.770  0.00  0.00    +0.000 NA
ATOM     11  C   UNL     1      23.763   5.355  50.435  0.00  0.00    +0.000 A 
ATOM     12  N   UNL     1      22.840   4.314  50.633  0.00  0.00    +0.000 N 
ATOM     13  H   UNL     1      22.223   4.023  49.923  0.00  0.00    +0.000 HD
ENDBRANCH   1  12
BRANCH   1  14
ATOM     14  C   UNL     1      23.051   1.839  51.950  0.00  0.00    +0.000 A 
ATOM     15  C   UNL     1      21.888   1.090  51.753  0.00  0.00    +0.000 A 
ATOM     16  C   UNL     1      21.874  -0.252  52.119  0.00  0.00    +0.000 A 
ATOM     17  C   UNL     1      22.923  -0.749  52.900  0.00  0.00    +0.000 A 
ATOM     18  C   UNL     1      24.071   0.032  53.154  0.00  0.00    +0.000 A 
ATOM     19  C   UNL     1      25.226  -0.519  53.716  0.00  0.00    +0.000 A 
ATOM     20  C   UNL     1      26.190  -0.782  52.768  0.00  0.00    +0.000 A 
ATOM     21  C   UNL     1      26.305   0.139  51.732  0.00  0.00    +0.000 A 
ATOM     22  C   UNL     1      25.415   1.223  51.667  0.00  0.00    +0.000 A 
ATOM     23  C   UNL     1      24.211   1.171  52.379  0.00  0.00    +0.000 A 
BRANCH  19  24
ATOM     24  N   UNL     1      25.572  -0.396  55.056  0.00  0.00    +0.000 N 
ATOM     25  C   UNL     1      26.797   0.291  55.471  0.00  0.00    +0.000 C 
ATOM     26  C   UNL     1      24.850  -1.104  56.105  0.00  0.00    +0.000 C 
ENDBRANCH  19  24
ENDBRANCH   1  14
TORSDOF 3
ENDMDL
MODEL 8
REMARK VINA RESULT:    -7.380      3.388      4.523
REMARK INTER + INTRA:          -9.352
REMARK INTER:                  -8.692
REMARK INTRA:                  -0.660
REMARK UNBOUND:                -0.678
REMARK  Name = 
REMARK  6 active torsions:
REMARK  status: ('A' for Active; 'I' for Inactive)
REMARK    1  A    between atoms: C_1  and  C_2
REMARK    2  A    between atoms: N_9  and  S_10
REMARK    3  A    between atoms: S_10  and  C_13
REMARK    4  A    between atoms: C_18  and  N_19
REMARK    5  A    between atoms: N_19  and  C_20
REMARK    6  A    between atoms: N_19  and  C_21
REMARK                            x       y       z     vdW  Elec       q    Type
REMARK                         _______ _______ _______ _____ _____    ______ ____
ROOT
ATOM      1  S   UNL     1      22.688   4.778  51.139  0.00  0.00    +0.000 S 
ATOM      2  O   UNL     1      23.773   5.041  52.062  0.00  0.00    +0.000 OA
ATOM      3  O   UNL     1      21.327   5.088  51.542  0.00  0.00    +0.000 OA
ENDROOT
BRANCH   1  12
ATOM      4  C   UNL     1      25.768   4.710  48.903  0.00  0.00    +0.000 C 
ATOM      5  C   UNL     1      25.445   6.064  49.441  0.00  0.00    +0.000 A 
ATOM      6  C   UNL     1      26.488   6.991  49.595  0.00  0.00    +0.000 A 
ATOM      7  C   UNL     1      26.191   8.235  50.115  0.00  0.00    +0.000 A 
ATOM      8 CL   UNL     1      27.397   9.428  50.343  0.00  0.00    +0.000 Cl
ATOM      9  N   UNL     1      24.951   8.609  50.461  0.00  0.00    +0.000 NA
ATOM     10  N   UNL     1      23.938   7.710  50.329  0.00  0.00    +0.000 NA
ATOM     11  C   UNL     1      24.177   6.482  49.823  0.00  0.00    +0.000 A 
ATOM     12  N   UNL     1      23.014   5.696  49.774  0.00  0.00    +0.000 N 
ATOM     13  H   UNL     1      22.425   5.685  48.984  0.00  0.00    +0.000 HD
ENDBRANCH   1  12
BRANCH   1  14
ATOM     14  C   UNL     1      22.751   3.053  50.697  0.00  0.00    +0.000 A 
ATOM     15  C   UNL     1      22.408   2.723  49.384  0.00  0.00    +0.000 A 
ATOM     16  C   UNL     1      21.919   1.450  49.108  0.00  0.00    +0.000 A 
ATOM     17  C   UNL     1      21.545   0.626  50.175  0.00  0.00    +0.000 A 
ATOM     18  C   UNL     1      21.835   0.989  51.508  0.00  0.00    +0.000 A 
ATOM     19  C   UNL     1      21.697   0.084  52.564  0.00  0.00    +0.000 A 
ATOM     20  C   UNL     1      22.905  -0.457  52.944  0.00  0.00    +0.000 A 
ATOM     21  C   UNL     1      24.002   0.398  52.915  0.00  0.00    +0.000 A 
ATOM     22  C   UNL     1      23.843   1.712  52.448  0.00  0.00    +0.000 A 
ATOM     23  C   UNL     1      22.726   2.037  51.670  0.00  0.00    +0.000 A 
BRANCH  19  24
ATOM     24  N   UNL     1      20.611   0.062  53.432  0.00  0.00    +0.000 N 
ATOM     25  C   UNL     1      20.782   0.235  54.876  0.00  0.00    +0.000 C 
ATOM     26  C   UNL     1      19.280  -0.327  52.987  0.00  0.00    +0.000 C 
ENDBRANCH  19  24
ENDBRANCH   1  14
TORSDOF 3
ENDMDL
MODEL 9
REMARK VINA RESULT:    -7.069      3.306      5.994
REMARK INTER + INTRA:          -8.987
REMARK INTER:                  -8.503
REMARK INTRA:                  -0.484
REMARK UNBOUND:                -0.678
REMARK  Name = 
REMARK  6 active torsions:
REMARK  status: ('A' for Active; 'I' for Inactive)
REMARK    1  A    between atoms: C_1  and  C_2
REMARK    2  A    between atoms: N_9  and  S_10
REMARK    3  A    between atoms: S_10  and  C_13
REMARK    4  A    between atoms: C_18  and  N_19
REMARK    5  A    between atoms: N_19  and  C_20
REMARK    6  A    between atoms: N_19  and  C_21
REMARK                            x       y       z     vdW  Elec       q    Type
REMARK                         _______ _______ _______ _____ _____    ______ ____
ROOT
ATOM      1  S   UNL     1      22.606   3.022  51.088  0.00  0.00    +0.000 S 
ATOM      2  O   UNL     1      21.297   3.543  50.751  0.00  0.00    +0.000 OA
ATOM      3  O   UNL     1      23.159   3.298  52.403  0.00  0.00    +0.000 OA
ENDROOT
BRANCH   1  12
ATOM      4  C   UNL     1      20.052   0.679  52.661  0.00  0.00    +0.000 C 
ATOM      5  C   UNL     1      21.468   0.310  52.955  0.00  0.00    +0.000 A 
ATOM      6  C   UNL     1      21.745  -0.398  54.136  0.00  0.00    +0.000 A 
ATOM      7  C   UNL     1      23.058  -0.717  54.418  0.00  0.00    +0.000 A 
ATOM      8 CL   UNL     1      23.493  -1.573  55.835  0.00  0.00    +0.000 Cl
ATOM      9  N   UNL     1      24.080  -0.403  53.609  0.00  0.00    +0.000 NA
ATOM     10  N   UNL     1      23.820   0.296  52.471  0.00  0.00    +0.000 NA
ATOM     11  C   UNL     1      22.552   0.630  52.150  0.00  0.00    +0.000 A 
ATOM     12  N   UNL     1      22.486   1.355  50.949  0.00  0.00    +0.000 N 
ATOM     13  H   UNL     1      22.375   0.911  50.077  0.00  0.00    +0.000 HD
ENDBRANCH   1  12
BRANCH   1  14
ATOM     14  C   UNL     1      23.762   3.617  49.870  0.00  0.00    +0.000 A 
ATOM     15  C   UNL     1      25.068   3.127  49.945  0.00  0.00    +0.000 A 
ATOM     16  C   UNL     1      26.112   3.891  49.432  0.00  0.00    +0.000 A 
ATOM     17  C   UNL     1      25.865   5.225  49.088  0.00  0.00    +0.000 A 
ATOM     18  C   UNL     1      24.551   5.738  49.073  0.00  0.00    +0.000 A 
ATOM     19  C   UNL     1      24.251   6.979  48.503  0.00  0.00    +0.000 A 
ATOM     20  C   UNL     1      23.714   6.854  47.241  0.00  0.00    +0.000 A 
ATOM     21  C   UNL     1      22.850   5.783  47.041  0.00  0.00    +0.000 A 
ATOM     22  C   UNL     1      22.627   4.868  48.082  0.00  0.00    +0.000 A 
ATOM     23  C   UNL     1      23.534   4.800  49.146  0.00  0.00    +0.000 A 
BRANCH  19  24
ATOM     24  N   UNL     1      24.065   8.145  49.236  0.00  0.00    +0.000 N 
ATOM     25  C   UNL     1      25.176   8.800  49.929  0.00  0.00    +0.000 C 
ATOM     26  C   UNL     1      22.736   8.672  49.518  0.00  0.00    +0.000 C 
ENDBRANCH  19  24
ENDBRANCH   1  14
TORSDOF 3
ENDMDL
