MODEL 1
REMARK VINA RESULT:    -8.768      0.000      0.000
REMARK INTER + INTRA:         -12.210
REMARK INTER:                 -11.331
REMARK INTRA:                  -0.880
REMARK UNBOUND:                -0.880
REMARK  Name = 
REMARK  7 active torsions:
REMARK  status: ('A' for Active; 'I' for Inactive)
REMARK    1  A    between atoms: C_1  and  C_2
REMARK    2  A    between atoms: C_2  and  N_3
REMARK    3  A    between atoms: C_7  and  N_8
REMARK    4  A    between atoms: N_8  and  C_9
REMARK    5  A    between atoms: C_9  and  C_10
REMARK    6  A    between atoms: C_9  and  C_11
REMARK    7  A    between atoms: C_19  and  C_20
REMARK                            x       y       z     vdW  Elec       q    Type
REMARK                         _______ _______ _______ _____ _____    ______ ____
ROOT
ATOM      1  N   UNL     1      27.806   0.738  53.873  0.00  0.00    +0.000 N 
ATOM      2  N   UNL     1      28.320   1.772  53.180  0.00  0.00    +0.000 NA
ATOM      3  C   UNL     1      27.249   2.310  52.598  0.00  0.00    +0.000 A 
ATOM      4  C   UNL     1      26.035   1.633  52.886  0.00  0.00    +0.000 A 
ATOM      5  C   UNL     1      24.659   1.754  52.564  0.00  0.00    +0.000 A 
ATOM      6  C   UNL     1      23.780   0.778  53.164  0.00  0.00    +0.000 A 
ATOM      7  C   UNL     1      22.371   0.746  52.959  0.00  0.00    +0.000 A 
ATOM      8  C   UNL     1      21.542  -0.231  53.537  0.00  0.00    +0.000 A 
ATOM      9  C   UNL     1      22.128  -1.214  54.329  0.00  0.00    +0.000 A 
ATOM     10  C   UNL     1      23.512  -1.196  54.538  0.00  0.00    +0.000 A 
ATOM     11  C   UNL     1      24.351  -0.231  53.995  0.00  0.00    +0.000 A 
ATOM     12  N   UNL     1      25.652  -0.328  54.295  0.00  0.00    +0.000 NA
ATOM     13  C   UNL     1      26.440   0.602  53.736  0.00  0.00    +0.000 A 
ENDROOT
BRANCH   1  15
ATOM     14  C   UNL     1      29.756  -0.827  53.971  0.00  0.00    +0.000 C 
ATOM     15  C   UNL     1      28.717  -0.006  54.717  0.00  0.00    +0.000 C 
ENDBRANCH   1  15
BRANCH   5  16
ATOM     16  N   UNL     1      24.121   2.713  51.695  0.00  0.00    +0.000 N 
ATOM     17  H   UNL     1      23.430   3.316  52.053  0.00  0.00    +0.000 HD
BRANCH  16  18
ATOM     18  C   UNL     1      24.510   2.884  50.299  0.00  0.00    +0.000 C 
ATOM     19  C   UNL     1      23.218   2.937  49.473  0.00  0.00    +0.000 C 
BRANCH  18  20
ATOM     20  C   UNL     1      25.486   4.089  50.112  0.00  0.00    +0.000 C 
ATOM     21  C   UNL     1      24.766   5.403  49.702  0.00  0.00    +0.000 C 
ATOM     22  C   UNL     1      25.743   6.559  49.463  0.00  0.00    +0.000 C 
ATOM     23  C   UNL     1      26.806   6.168  48.446  0.00  0.00    +0.000 C 
ATOM     24  C   UNL     1      27.585   4.954  48.931  0.00  0.00    +0.000 C 
ATOM     25  C   UNL     1      26.658   3.767  49.173  0.00  0.00    +0.000 C 
ENDBRANCH  18  20
ENDBRANCH  16  18
ENDBRANCH   5  16
BRANCH   8  26
ATOM     26  C   UNL     1      20.131  -0.210  53.316  0.00  0.00    +0.000 C 
ATOM     27  N   UNL     1      18.978  -0.184  53.132  0.00  0.00    +0.000 NA
ENDBRANCH   8  26
TORSDOF 5
ENDMDL
MODEL 2
REMARK VINA RESULT:    -8.708      1.701      5.727
REMARK INTER + INTRA:         -12.133
REMARK INTER:                 -11.118
REMARK INTRA:                  -1.015
REMARK UNBOUND:                -0.880
REMARK  Name = 
REMARK  7 active torsions:
REMARK  status: ('A' for Active; 'I' for Inactive)
REMARK    1  A    between atoms: C_1  and  C_2
REMARK    2  A    between atoms: C_2  and  N_3
REMARK    3  A    between atoms: C_7  and  N_8
REMARK    4  A    between atoms: N_8  and  C_9
REMARK    5  A    between atoms: C_9  and  C_10
REMARK    6  A    between atoms: C_9  and  C_11
REMARK    7  A    between atoms: C_19  and  C_20
REMARK                            x       y       z     vdW  Elec       q    Type
REMARK                         _______ _______ _______ _____ _____    ______ ____
ROOT
ATOM      1  N   UNL     1      27.891   0.700  53.949  0.00  0.00    +0.000 N 
ATOM      2  N   UNL     1      27.310   0.050  54.975  0.00  0.00    +0.000 NA
ATOM      3  C   UNL     1      26.009   0.189  54.727  0.00  0.00    +0.000 A 
ATOM      4  C   UNL     1      25.723   0.938  53.555  0.00  0.00    +0.000 A 
ATOM      5  C   UNL     1      24.580   1.377  52.838  0.00  0.00    +0.000 A 
ATOM      6  C   UNL     1      24.840   2.126  51.630  0.00  0.00    +0.000 A 
ATOM      7  C   UNL     1      23.820   2.641  50.781  0.00  0.00    +0.000 A 
ATOM      8  C   UNL     1      24.101   3.388  49.624  0.00  0.00    +0.000 A 
ATOM      9  C   UNL     1      25.431   3.644  49.307  0.00  0.00    +0.000 A 
ATOM     10  C   UNL     1      26.444   3.146  50.134  0.00  0.00    +0.000 A 
ATOM     11  C   UNL     1      26.195   2.388  51.272  0.00  0.00    +0.000 A 
ATOM     12  N   UNL     1      27.263   1.962  51.956  0.00  0.00    +0.000 NA
ATOM     13  C   UNL     1      26.990   1.256  53.063  0.00  0.00    +0.000 A 
ENDROOT
BRANCH   1  15
ATOM     14  C   UNL     1      29.909  -0.741  53.623  0.00  0.00    +0.000 C 
ATOM     15  C   UNL     1      29.335   0.644  53.867  0.00  0.00    +0.000 C 
ENDBRANCH   1  15
BRANCH   5  16
ATOM     16  N   UNL     1      23.254   1.165  53.237  0.00  0.00    +0.000 N 
ATOM     17  H   UNL     1      22.824   1.864  53.781  0.00  0.00    +0.000 HD
BRANCH  16  18
ATOM     18  C   UNL     1      22.461  -0.014  52.905  0.00  0.00    +0.000 C 
ATOM     19  C   UNL     1      22.642  -1.017  54.052  0.00  0.00    +0.000 C 
BRANCH  18  20
ATOM     20  C   UNL     1      20.986   0.357  52.553  0.00  0.00    +0.000 C 
ATOM     21  C   UNL     1      19.942  -0.582  53.216  0.00  0.00    +0.000 C 
ATOM     22  C   UNL     1      18.504  -0.242  52.812  0.00  0.00    +0.000 C 
ATOM     23  C   UNL     1      18.355  -0.228  51.298  0.00  0.00    +0.000 C 
ATOM     24  C   UNL     1      19.298   0.794  50.680  0.00  0.00    +0.000 C 
ATOM     25  C   UNL     1      20.749   0.492  51.042  0.00  0.00    +0.000 C 
ENDBRANCH  18  20
ENDBRANCH  16  18
ENDBRANCH   5  16
BRANCH   8  26
ATOM     26  C   UNL     1      23.042   3.868  48.794  0.00  0.00    +0.000 C 
ATOM     27  N   UNL     1      22.174   4.251  48.113  0.00  0.00    +0.000 NA
ENDBRANCH   8  26
TORSDOF 5
ENDMDL
MODEL 3
REMARK VINA RESULT:    -8.497      1.705      3.423
REMARK INTER + INTRA:         -11.861
REMARK INTER:                 -10.457
REMARK INTRA:                  -1.403
REMARK UNBOUND:                -0.880
REMARK  Name = 
REMARK  7 active torsions:
REMARK  status: ('A' for Active; 'I' for Inactive)
REMARK    1  A    between atoms: C_1  and  C_2
REMARK    2  A    between atoms: C_2  and  N_3
REMARK    3  A    between atoms: C_7  and  N_8
REMARK    4  A    between atoms: N_8  and  C_9
REMARK    5  A    between atoms: C_9  and  C_10
REMARK    6  A    between atoms: C_9  and  C_11
REMARK    7  A    between atoms: C_19  and  C_20
REMARK                            x       y       z     vdW  Elec       q    Type
REMARK                         _______ _______ _______ _____ _____    ______ ____
ROOT
ATOM      1  N   UNL     1      27.418   0.615  53.580  0.00  0.00    +0.000 N 
ATOM      2  N   UNL     1      27.881   1.442  52.623  0.00  0.00    +0.000 NA
ATOM      3  C   UNL     1      26.783   1.765  51.941  0.00  0.00    +0.000 A 
ATOM      4  C   UNL     1      25.601   1.147  52.428  0.00  0.00    +0.000 A 
ATOM      5  C   UNL     1      24.217   1.127  52.115  0.00  0.00    +0.000 A 
ATOM      6  C   UNL     1      23.385   0.318  52.975  0.00  0.00    +0.000 A 
ATOM      7  C   UNL     1      21.976   0.181  52.817  0.00  0.00    +0.000 A 
ATOM      8  C   UNL     1      21.195  -0.633  53.655  0.00  0.00    +0.000 A 
ATOM      9  C   UNL     1      21.828  -1.343  54.669  0.00  0.00    +0.000 A 
ATOM     10  C   UNL     1      23.212  -1.221  54.835  0.00  0.00    +0.000 A 
ATOM     11  C   UNL     1      24.006  -0.408  54.034  0.00  0.00    +0.000 A 
ATOM     12  N   UNL     1      25.313  -0.374  54.320  0.00  0.00    +0.000 NA
ATOM     13  C   UNL     1      26.056   0.398  53.515  0.00  0.00    +0.000 A 
ENDROOT
BRANCH   1  15
ATOM     14  C   UNL     1      29.502  -0.692  54.029  0.00  0.00    +0.000 C 
ATOM     15  C   UNL     1      28.368   0.160  54.572  0.00  0.00    +0.000 C 
ENDBRANCH   1  15
BRANCH   5  16
ATOM     16  N   UNL     1      23.631   1.796  51.032  0.00  0.00    +0.000 N 
ATOM     17  H   UNL     1      23.543   1.302  50.185  0.00  0.00    +0.000 HD
BRANCH  16  18
ATOM     18  C   UNL     1      23.140   3.170  51.068  0.00  0.00    +0.000 C 
ATOM     19  C   UNL     1      24.034   3.993  50.131  0.00  0.00    +0.000 C 
BRANCH  18  20
ATOM     20  C   UNL     1      21.606   3.246  50.783  0.00  0.00    +0.000 C 
ATOM     21  C   UNL     1      20.752   3.424  52.068  0.00  0.00    +0.000 C 
ATOM     22  C   UNL     1      19.248   3.436  51.778  0.00  0.00    +0.000 C 
ATOM     23  C   UNL     1      18.835   2.191  51.005  0.00  0.00    +0.000 C 
ATOM     24  C   UNL     1      19.594   2.107  49.688  0.00  0.00    +0.000 C 
ATOM     25  C   UNL     1      21.101   2.079  49.923  0.00  0.00    +0.000 C 
ENDBRANCH  18  20
ENDBRANCH  16  18
ENDBRANCH   5  16
BRANCH   8  26
ATOM     26  C   UNL     1      19.781  -0.722  53.468  0.00  0.00    +0.000 C 
ATOM     27  N   UNL     1      18.626  -0.805  53.312  0.00  0.00    +0.000 NA
ENDBRANCH   8  26
TORSDOF 5
ENDMDL
MODEL 4
REMARK VINA RESULT:    -8.411      1.486      5.479
REMARK INTER + INTRA:         -11.749
REMARK INTER:                 -10.831
REMARK INTRA:                  -0.918
REMARK UNBOUND:                -0.880
REMARK  Name = 
REMARK  7 active torsions:
REMARK  status: ('A' for Active; 'I' for Inactive)
REMARK    1  A    between atoms: C_1  and  C_2
REMARK    2  A    between atoms: C_2  and  N_3
REMARK    3  A    between atoms: C_7  and  N_8
REMARK    4  A    between atoms: N_8  and  C_9
REMARK    5  A    between atoms: C_9  and  C_10
REMARK    6  A    between atoms: C_9  and  C_11
REMARK    7  A    between atoms: C_19  and  C_20
REMARK                            x       y       z     vdW  Elec       q    Type
REMARK                         _______ _______ _______ _____ _____    ______ ____
ROOT
ATOM      1  N   UNL     1      19.459  -0.328  52.646  0.00  0.00    +0.000 N 
ATOM      2  N   UNL     1      19.124   0.354  51.535  0.00  0.00    +0.000 NA
ATOM      3  C   UNL     1      20.285   0.870  51.133  0.00  0.00    +0.000 A 
ATOM      4  C   UNL     1      21.381   0.550  51.976  0.00  0.00    +0.000 A 
ATOM      5  C   UNL     1      22.775   0.806  52.035  0.00  0.00    +0.000 A 
ATOM      6  C   UNL     1      23.484   0.198  53.137  0.00  0.00    +0.000 A 
ATOM      7  C   UNL     1      24.884   0.341  53.356  0.00  0.00    +0.000 A 
ATOM      8  C   UNL     1      25.545  -0.242  54.451  0.00  0.00    +0.000 A 
ATOM      9  C   UNL     1      24.795  -0.976  55.363  0.00  0.00    +0.000 A 
ATOM     10  C   UNL     1      23.417  -1.123  55.163  0.00  0.00    +0.000 A 
ATOM     11  C   UNL     1      22.742  -0.575  54.079  0.00  0.00    +0.000 A 
ATOM     12  N   UNL     1      21.428  -0.812  54.006  0.00  0.00    +0.000 NA
ATOM     13  C   UNL     1      20.801  -0.248  52.964  0.00  0.00    +0.000 A 
ENDROOT
BRANCH   1  15
ATOM     14  C   UNL     1      17.093  -1.129  52.535  0.00  0.00    +0.000 C 
ATOM     15  C   UNL     1      18.417  -1.107  53.280  0.00  0.00    +0.000 C 
ENDBRANCH   1  15
BRANCH   5  16
ATOM     16  N   UNL     1      23.479   1.620  51.137  0.00  0.00    +0.000 N 
ATOM     17  H   UNL     1      24.135   1.185  50.546  0.00  0.00    +0.000 HD
BRANCH  16  18
ATOM     18  C   UNL     1      23.310   3.064  51.013  0.00  0.00    +0.000 C 
ATOM     19  C   UNL     1      23.398   3.652  52.428  0.00  0.00    +0.000 C 
BRANCH  18  20
ATOM     20  C   UNL     1      24.291   3.674  49.962  0.00  0.00    +0.000 C 
ATOM     21  C   UNL     1      25.781   3.347  50.250  0.00  0.00    +0.000 C 
ATOM     22  C   UNL     1      26.733   4.004  49.245  0.00  0.00    +0.000 C 
ATOM     23  C   UNL     1      26.497   5.507  49.178  0.00  0.00    +0.000 C 
ATOM     24  C   UNL     1      25.062   5.802  48.768  0.00  0.00    +0.000 C 
ATOM     25  C   UNL     1      24.071   5.179  49.746  0.00  0.00    +0.000 C 
ENDBRANCH  18  20
ENDBRANCH  16  18
ENDBRANCH   5  16
BRANCH   8  26
ATOM     26  C   UNL     1      26.955  -0.086  54.616  0.00  0.00    +0.000 C 
ATOM     27  N   UNL     1      28.109   0.036  54.744  0.00  0.00    +0.000 NA
ENDBRANCH   8  26
TORSDOF 5
ENDMDL
MODEL 5
REMARK VINA RESULT:    -8.377      2.301      6.413
REMARK INTER + INTRA:         -11.705
REMARK INTER:                 -10.783
REMARK INTRA:                  -0.922
REMARK UNBOUND:                -0.880
REMARK  Name = 
REMARK  7 active torsions:
REMARK  status: ('A' for Active; 'I' for Inactive)
REMARK    1  A    between atoms: C_1  and  C_2
REMARK    2  A    between atoms: C_2  and  N_3
REMARK    3  A    between atoms: C_7  and  N_8
REMARK    4  A    between atoms: N_8  and  C_9
REMARK    5  A    between atoms: C_9  and  C_10
REMARK    6  A    between atoms: C_9  and  C_11
REMARK    7  A    between atoms: C_19  and  C_20
REMARK                            x       y       z     vdW  Elec       q    Type
REMARK                         _______ _______ _______ _____ _____    ______ ____
ROOT
ATOM      1  N   UNL     1      21.274   0.306  53.229  0.00  0.00    +0.000 N 
ATOM      2  N   UNL     1      22.251  -0.537  53.614  0.00  0.00    +0.000 NA
ATOM      3  C   UNL     1      23.361   0.178  53.430  0.00  0.00    +0.000 A 
ATOM      4  C   UNL     1      23.127   1.479  52.912  0.00  0.00    +0.000 A 
ATOM      5  C   UNL     1      23.889   2.618  52.543  0.00  0.00    +0.000 A 
ATOM      6  C   UNL     1      23.135   3.758  52.074  0.00  0.00    +0.000 A 
ATOM      7  C   UNL     1      23.727   4.987  51.665  0.00  0.00    +0.000 A 
ATOM      8  C   UNL     1      22.971   6.072  51.189  0.00  0.00    +0.000 A 
ATOM      9  C   UNL     1      21.590   5.931  51.104  0.00  0.00    +0.000 A 
ATOM     10  C   UNL     1      20.994   4.728  51.500  0.00  0.00    +0.000 A 
ATOM     11  C   UNL     1      21.715   3.647  51.992  0.00  0.00    +0.000 A 
ATOM     12  N   UNL     1      21.011   2.568  52.351  0.00  0.00    +0.000 NA
ATOM     13  C   UNL     1      21.737   1.532  52.797  0.00  0.00    +0.000 A 
ENDROOT
BRANCH   1  15
ATOM     14  C   UNL     1      19.102  -0.265  52.128  0.00  0.00    +0.000 C 
ATOM     15  C   UNL     1      19.910  -0.143  53.409  0.00  0.00    +0.000 C 
ENDBRANCH   1  15
BRANCH   5  16
ATOM     16  N   UNL     1      25.288   2.690  52.569  0.00  0.00    +0.000 N 
ATOM     17  H   UNL     1      25.704   3.217  53.289  0.00  0.00    +0.000 HD
BRANCH  16  18
ATOM     18  C   UNL     1      26.174   2.039  51.610  0.00  0.00    +0.000 C 
ATOM     19  C   UNL     1      26.548   3.089  50.556  0.00  0.00    +0.000 C 
BRANCH  18  20
ATOM     20  C   UNL     1      27.372   1.328  52.315  0.00  0.00    +0.000 C 
ATOM     21  C   UNL     1      27.050  -0.125  52.756  0.00  0.00    +0.000 C 
ATOM     22  C   UNL     1      28.215  -0.786  53.500  0.00  0.00    +0.000 C 
ATOM     23  C   UNL     1      28.658   0.066  54.681  0.00  0.00    +0.000 C 
ATOM     24  C   UNL     1      29.091   1.446  54.207  0.00  0.00    +0.000 C 
ATOM     25  C   UNL     1      27.960   2.154  53.469  0.00  0.00    +0.000 C 
ENDBRANCH  18  20
ENDBRANCH  16  18
ENDBRANCH   5  16
BRANCH   8  26
ATOM     26  C   UNL     1      23.610   7.292  50.808  0.00  0.00    +0.000 C 
ATOM     27  N   UNL     1      24.133   8.286  50.487  0.00  0.00    +0.000 NA
ENDBRANCH   8  26
TORSDOF 5
ENDMDL
MODEL 6
REMARK VINA RESULT:    -8.327      1.741      6.681
REMARK INTER + INTRA:         -11.641
REMARK INTER:                 -10.695
REMARK INTRA:                  -0.946
REMARK UNBOUND:                -0.880
REMARK  Name = 
REMARK  7 active torsions:
REMARK  status: ('A' for Active; 'I' for Inactive)
REMARK    1  A    between atoms: C_1  and  C_2
REMARK    2  A    between atoms: C_2  and  N_3
REMARK    3  A    between atoms: C_7  and  N_8
REMARK    4  A    between atoms: N_8  and  C_9
REMARK    5  A    between atoms: C_9  and  C_10
REMARK    6  A    between atoms: C_9  and  C_11
REMARK    7  A    between atoms: C_19  and  C_20
REMARK                            x       y       z     vdW  Elec       q    Type
REMARK                         _______ _______ _______ _____ _____    ______ ____
ROOT
ATOM      1  N   UNL     1      20.630  -0.431  53.062  0.00  0.00    +0.000 N 
ATOM      2  N   UNL     1      21.020  -1.099  54.164  0.00  0.00    +0.000 NA
ATOM      3  C   UNL     1      22.309  -0.779  54.274  0.00  0.00    +0.000 A 
ATOM      4  C   UNL     1      22.779   0.079  53.246  0.00  0.00    +0.000 A 
ATOM      5  C   UNL     1      23.993   0.714  52.877  0.00  0.00    +0.000 A 
ATOM      6  C   UNL     1      23.938   1.550  51.700  0.00  0.00    +0.000 A 
ATOM      7  C   UNL     1      25.054   2.267  51.183  0.00  0.00    +0.000 A 
ATOM      8  C   UNL     1      24.978   3.054  50.021  0.00  0.00    +0.000 A 
ATOM      9  C   UNL     1      23.765   3.121  49.343  0.00  0.00    +0.000 A 
ATOM     10  C   UNL     1      22.659   2.419  49.838  0.00  0.00    +0.000 A 
ATOM     11  C   UNL     1      22.701   1.650  50.995  0.00  0.00    +0.000 A 
ATOM     12  N   UNL     1      21.563   1.050  51.360  0.00  0.00    +0.000 NA
ATOM     13  C   UNL     1      21.642   0.294  52.465  0.00  0.00    +0.000 A 
ENDROOT
BRANCH   1  15
ATOM     14  C   UNL     1      18.404  -1.462  53.548  0.00  0.00    +0.000 C 
ATOM     15  C   UNL     1      19.225  -0.486  52.721  0.00  0.00    +0.000 C 
ENDBRANCH   1  15
BRANCH   5  16
ATOM     16  N   UNL     1      25.215   0.555  53.544  0.00  0.00    +0.000 N 
ATOM     17  H   UNL     1      25.576   1.334  54.026  0.00  0.00    +0.000 HD
BRANCH  16  18
ATOM     18  C   UNL     1      25.992  -0.679  53.576  0.00  0.00    +0.000 C 
ATOM     19  C   UNL     1      25.839  -1.346  52.202  0.00  0.00    +0.000 C 
BRANCH  18  20
ATOM     20  C   UNL     1      27.459  -0.430  54.051  0.00  0.00    +0.000 C 
ATOM     21  C   UNL     1      27.872   1.066  54.006  0.00  0.00    +0.000 C 
ATOM     22  C   UNL     1      29.332   1.286  54.416  0.00  0.00    +0.000 C 
ATOM     23  C   UNL     1      30.266   0.427  53.575  0.00  0.00    +0.000 C 
ATOM     24  C   UNL     1      29.923  -1.046  53.736  0.00  0.00    +0.000 C 
ATOM     25  C   UNL     1      28.479  -1.322  53.328  0.00  0.00    +0.000 C 
ENDBRANCH  18  20
ENDBRANCH  16  18
ENDBRANCH   5  16
BRANCH   8  26
ATOM     26  C   UNL     1      26.121   3.771  49.552  0.00  0.00    +0.000 C 
ATOM     27  N   UNL     1      27.061   4.354  49.176  0.00  0.00    +0.000 NA
ENDBRANCH   8  26
TORSDOF 5
ENDMDL
MODEL 7
REMARK VINA RESULT:    -8.100      1.869      2.304
REMARK INTER + INTRA:         -11.348
REMARK INTER:                 -10.603
REMARK INTRA:                  -0.745
REMARK UNBOUND:                -0.880
REMARK  Name = 
REMARK  7 active torsions:
REMARK  status: ('A' for Active; 'I' for Inactive)
REMARK    1  A    between atoms: C_1  and  C_2
REMARK    2  A    between atoms: C_2  and  N_3
REMARK    3  A    between atoms: C_7  and  N_8
REMARK    4  A    between atoms: N_8  and  C_9
REMARK    5  A    between atoms: C_9  and  C_10
REMARK    6  A    between atoms: C_9  and  C_11
REMARK    7  A    between atoms: C_19  and  C_20
REMARK                            x       y       z     vdW  Elec       q    Type
REMARK                         _______ _______ _______ _____ _____    ______ ____
ROOT
ATOM      1  N   UNL     1      27.345   0.601  53.688  0.00  0.00    +0.000 N 
ATOM      2  N   UNL     1      27.808   1.510  52.809  0.00  0.00    +0.000 NA
ATOM      3  C   UNL     1      26.711   1.890  52.156  0.00  0.00    +0.000 A 
ATOM      4  C   UNL     1      25.529   1.229  52.583  0.00  0.00    +0.000 A 
ATOM      5  C   UNL     1      24.146   1.234  52.267  0.00  0.00    +0.000 A 
ATOM      6  C   UNL     1      23.314   0.350  53.051  0.00  0.00    +0.000 A 
ATOM      7  C   UNL     1      21.906   0.225  52.878  0.00  0.00    +0.000 A 
ATOM      8  C   UNL     1      21.125  -0.662  53.639  0.00  0.00    +0.000 A 
ATOM      9  C   UNL     1      21.758  -1.458  54.587  0.00  0.00    +0.000 A 
ATOM     10  C   UNL     1      23.142  -1.347  54.766  0.00  0.00    +0.000 A 
ATOM     11  C   UNL     1      23.935  -0.465  54.043  0.00  0.00    +0.000 A 
ATOM     12  N   UNL     1      25.241  -0.454  54.333  0.00  0.00    +0.000 NA
ATOM     13  C   UNL     1      25.984   0.388  53.601  0.00  0.00    +0.000 A 
ENDROOT
BRANCH   1  15
ATOM     14  C   UNL     1      29.533  -0.564  54.021  0.00  0.00    +0.000 C 
ATOM     15  C   UNL     1      28.294   0.063  54.638  0.00  0.00    +0.000 C 
ENDBRANCH   1  15
BRANCH   5  16
ATOM     16  N   UNL     1      23.560   1.995  51.246  0.00  0.00    +0.000 N 
ATOM     17  H   UNL     1      23.676   1.681  50.320  0.00  0.00    +0.000 HD
BRANCH  16  18
ATOM     18  C   UNL     1      22.791   3.216  51.454  0.00  0.00    +0.000 C 
ATOM     19  C   UNL     1      23.662   4.162  52.292  0.00  0.00    +0.000 C 
BRANCH  18  20
ATOM     20  C   UNL     1      22.255   3.801  50.109  0.00  0.00    +0.000 C 
ATOM     21  C   UNL     1      22.802   3.063  48.858  0.00  0.00    +0.000 C 
ATOM     22  C   UNL     1      22.315   3.687  47.546  0.00  0.00    +0.000 C 
ATOM     23  C   UNL     1      22.640   5.174  47.499  0.00  0.00    +0.000 C 
ATOM     24  C   UNL     1      21.985   5.898  48.667  0.00  0.00    +0.000 C 
ATOM     25  C   UNL     1      22.447   5.321  50.001  0.00  0.00    +0.000 C 
ENDBRANCH  18  20
ENDBRANCH  16  18
ENDBRANCH   5  16
BRANCH   8  26
ATOM     26  C   UNL     1      19.712  -0.738  53.441  0.00  0.00    +0.000 C 
ATOM     27  N   UNL     1      18.556  -0.806  53.288  0.00  0.00    +0.000 NA
ENDBRANCH   8  26
TORSDOF 5
ENDMDL
MODEL 8
REMARK VINA RESULT:    -8.014      1.973      7.092
REMARK INTER + INTRA:         -11.237
REMARK INTER:                 -10.549
REMARK INTRA:                  -0.687
REMARK UNBOUND:                -0.880
REMARK  Name = 
REMARK  7 active torsions:
REMARK  status: ('A' for Active; 'I' for Inactive)
REMARK    1  A    between atoms: C_1  and  C_2
REMARK    2  A    between atoms: C_2  and  N_3
REMARK    3  A    between atoms: C_7  and  N_8
REMARK    4  A    between atoms: N_8  and  C_9
REMARK    5  A    between atoms: C_9  and  C_10
REMARK    6  A    between atoms: C_9  and  C_11
REMARK    7  A    between atoms: C_19  and  C_20
REMARK                            x       y       z     vdW  Elec       q    Type
REMARK                         _______ _______ _______ _____ _____    ______ ____
ROOT
ATOM      1  N   UNL     1      21.408   1.053  52.446  0.00  0.00    +0.000 N 
ATOM      2  N   UNL     1      21.847  -0.006  53.153  0.00  0.00    +0.000 NA
ATOM      3  C   UNL     1      23.166   0.030  52.968  0.00  0.00    +0.000 A 
ATOM      4  C   UNL     1      23.602   1.092  52.132  0.00  0.00    +0.000 A 
ATOM      5  C   UNL     1      24.826   1.595  51.620  0.00  0.00    +0.000 A 
ATOM      6  C   UNL     1      24.728   2.776  50.794  0.00  0.00    +0.000 A 
ATOM      7  C   UNL     1      25.848   3.423  50.198  0.00  0.00    +0.000 A 
ATOM      8  C   UNL     1      25.721   4.557  49.379  0.00  0.00    +0.000 A 
ATOM      9  C   UNL     1      24.448   5.058  49.131  0.00  0.00    +0.000 A 
ATOM     10  C   UNL     1      23.337   4.431  49.708  0.00  0.00    +0.000 A 
ATOM     11  C   UNL     1      23.435   3.321  50.537  0.00  0.00    +0.000 A 
ATOM     12  N   UNL     1      22.290   2.838  51.034  0.00  0.00    +0.000 NA
ATOM     13  C   UNL     1      22.415   1.751  51.809  0.00  0.00    +0.000 A 
ENDROOT
BRANCH   1  15
ATOM     14  C   UNL     1      19.148   0.774  51.411  0.00  0.00    +0.000 C 
ATOM     15  C   UNL     1      19.996   1.359  52.528  0.00  0.00    +0.000 C 
ENDBRANCH   1  15
BRANCH   5  16
ATOM     16  N   UNL     1      26.082   1.011  51.829  0.00  0.00    +0.000 N 
ATOM     17  H   UNL     1      26.393   0.349  51.171  0.00  0.00    +0.000 HD
BRANCH  16  18
ATOM     18  C   UNL     1      26.964   1.313  52.951  0.00  0.00    +0.000 C 
ATOM     19  C   UNL     1      26.129   2.071  53.992  0.00  0.00    +0.000 C 
BRANCH  18  20
ATOM     20  C   UNL     1      27.702   0.038  53.470  0.00  0.00    +0.000 C 
ATOM     21  C   UNL     1      29.245   0.198  53.517  0.00  0.00    +0.000 C 
ATOM     22  C   UNL     1      29.956  -1.081  53.970  0.00  0.00    +0.000 C 
ATOM     23  C   UNL     1      29.547  -2.265  53.104  0.00  0.00    +0.000 C 
ATOM     24  C   UNL     1      28.042  -2.481  53.177  0.00  0.00    +0.000 C 
ATOM     25  C   UNL     1      27.285  -1.237  52.723  0.00  0.00    +0.000 C 
ENDBRANCH  18  20
ENDBRANCH  16  18
ENDBRANCH   5  16
BRANCH   8  26
ATOM     26  C   UNL     1      26.878   5.182  48.818  0.00  0.00    +0.000 C 
ATOM     27  N   UNL     1      27.826   5.695  48.370  0.00  0.00    +0.000 NA
ENDBRANCH   8  26
TORSDOF 5
ENDMDL
MODEL 9
REMARK VINA RESULT:    -7.446      2.579      7.570
REMARK INTER + INTRA:         -10.503
REMARK INTER:                  -9.440
REMARK INTRA:                  -1.062
REMARK UNBOUND:                -0.880
REMARK  Name = 
REMARK  7 active torsions:
REMARK  status: ('A' for Active; 'I' for Inactive)
REMARK    1  A    between atoms: C_1  and  C_2
REMARK    2  A    between atoms: C_2  and  N_3
REMARK    3  A    between atoms: C_7  and  N_8
REMARK    4  A    between atoms: N_8  and  C_9
REMARK    5  A    between atoms: C_9  and  C_10
REMARK    6  A    between atoms: C_9  and  C_11
REMARK    7  A    between atoms: C_19  and  C_20
REMARK                            x       y       z     vdW  Elec       q    Type
REMARK                         _______ _______ _______ _____ _____    ______ ____
ROOT
ATOM      1  N   UNL     1      19.075   3.255  51.136  0.00  0.00    +0.000 N 
ATOM      2  N   UNL     1      18.858   2.098  51.790  0.00  0.00    +0.000 NA
ATOM      3  C   UNL     1      20.073   1.553  51.856  0.00  0.00    +0.000 A 
ATOM      4  C   UNL     1      21.086   2.331  51.237  0.00  0.00    +0.000 A 
ATOM      5  C   UNL     1      22.486   2.254  51.017  0.00  0.00    +0.000 A 
ATOM      6  C   UNL     1      23.080   3.373  50.323  0.00  0.00    +0.000 A 
ATOM      7  C   UNL     1      24.467   3.472  50.018  0.00  0.00    +0.000 A 
ATOM      8  C   UNL     1      25.015   4.562  49.319  0.00  0.00    +0.000 A 
ATOM      9  C   UNL     1      24.161   5.576  48.898  0.00  0.00    +0.000 A 
ATOM     10  C   UNL     1      22.794   5.491  49.189  0.00  0.00    +0.000 A 
ATOM     11  C   UNL     1      22.230   4.435  49.895  0.00  0.00    +0.000 A 
ATOM     12  N   UNL     1      20.912   4.496  50.116  0.00  0.00    +0.000 NA
ATOM     13  C   UNL     1      20.393   3.451  50.776  0.00  0.00    +0.000 A 
ENDROOT
BRANCH   1  15
ATOM     14  C   UNL     1      16.709   3.753  51.779  0.00  0.00    +0.000 C 
ATOM     15  C   UNL     1      17.946   4.149  50.990  0.00  0.00    +0.000 C 
ENDBRANCH   1  15
BRANCH   5  16
ATOM     16  N   UNL     1      23.297   1.173  51.388  0.00  0.00    +0.000 N 
ATOM     17  H   UNL     1      23.474   0.481  50.710  0.00  0.00    +0.000 HD
BRANCH  16  18
ATOM     18  C   UNL     1      23.901   0.998  52.705  0.00  0.00    +0.000 C 
ATOM     19  C   UNL     1      23.233  -0.225  53.348  0.00  0.00    +0.000 C 
BRANCH  18  20
ATOM     20  C   UNL     1      25.460   0.959  52.629  0.00  0.00    +0.000 C 
ATOM     21  C   UNL     1      26.052  -0.453  52.888  0.00  0.00    +0.000 C 
ATOM     22  C   UNL     1      27.583  -0.462  52.870  0.00  0.00    +0.000 C 
ATOM     23  C   UNL     1      28.143   0.562  53.848  0.00  0.00    +0.000 C 
ATOM     24  C   UNL     1      27.651   1.958  53.496  0.00  0.00    +0.000 C 
ATOM     25  C   UNL     1      26.127   2.024  53.511  0.00  0.00    +0.000 C 
ENDBRANCH  18  20
ENDBRANCH  16  18
ENDBRANCH   5  16
BRANCH   8  26
ATOM     26  C   UNL     1      26.417   4.625  49.054  0.00  0.00    +0.000 C 
ATOM     27  N   UNL     1      27.562   4.669  48.829  0.00  0.00    +0.000 NA
ENDBRANCH   8  26
TORSDOF 5
ENDMDL
