MODEL 1
REMARK VINA RESULT:    -9.306      0.000      0.000
REMARK INTER + INTRA:         -14.581
REMARK INTER:                 -13.387
REMARK INTRA:                  -1.195
REMARK UNBOUND:                -1.195
REMARK  Name = 
REMARK  9 active torsions:
REMARK  status: ('A' for Active; 'I' for Inactive)
REMARK    1  A    between atoms: C_1  and  N_2
REMARK    2  A    between atoms: C_4  and  C_5
REMARK    3  A    between atoms: C_6  and  C_7
REMARK    4  A    between atoms: N_9  and  C_10
REMARK    5  A    between atoms: C_10  and  C_11
REMARK    6  A    between atoms: C_11  and  C_12
REMARK    7  A    between atoms: C_12  and  C_13
REMARK    8  A    between atoms: C_13  and  C_14
REMARK    9  A    between atoms: C_14  and  N_15
REMARK                            x       y       z     vdW  Elec       q    Type
REMARK                         _______ _______ _______ _____ _____    ______ ____
ROOT
ATOM      1  C   UNL     1      23.549   0.105  53.577  0.00  0.00    +0.000 C 
ATOM      2  C   UNL     1      22.814   1.028  52.940  0.00  0.00    +0.000 C 
ATOM      3  C   UNL     1      21.436   0.973  53.476  0.00  0.00    +0.000 C 
ATOM      4  O   UNL     1      20.495   1.670  53.157  0.00  0.00    +0.000 OA
ATOM      5  N   UNL     1      21.431  -0.005  54.416  0.00  0.00    +0.000 N 
ATOM      6  C   UNL     1      22.632  -0.595  54.511  0.00  0.00    +0.000 C 
ATOM      7  O   UNL     1      22.905  -1.553  55.209  0.00  0.00    +0.000 OA
ATOM      8  H   UNL     1      20.646  -0.250  54.958  0.00  0.00    +0.000 HD
ENDROOT
BRANCH   1  12
ATOM      9  C   UNL     1      27.567  -2.535  52.521  0.00  0.00    +0.000 C 
ATOM     10  N   UNL     1      26.721  -1.434  52.923  0.00  0.00    +0.000 N 
ATOM     11  C   UNL     1      25.354  -1.483  52.997  0.00  0.00    +0.000 A 
ATOM     12  C   UNL     1      24.910  -0.239  53.391  0.00  0.00    +0.000 A 
ATOM     13  C   UNL     1      26.052   0.599  53.563  0.00  0.00    +0.000 A 
ATOM     14  C   UNL     1      26.246   1.945  53.939  0.00  0.00    +0.000 A 
ATOM     15  C   UNL     1      27.545   2.460  54.034  0.00  0.00    +0.000 A 
ATOM     16  C   UNL     1      28.648   1.657  53.762  0.00  0.00    +0.000 A 
ATOM     17  C   UNL     1      28.486   0.323  53.385  0.00  0.00    +0.000 A 
ATOM     18  C   UNL     1      27.179  -0.182  53.284  0.00  0.00    +0.000 A 
ENDBRANCH   1  12
BRANCH   2  19
ATOM     19  C   UNL     1      23.190   1.874  51.876  0.00  0.00    +0.000 A 
ATOM     20  C   UNL     1      24.112   2.888  51.961  0.00  0.00    +0.000 A 
ATOM     21  N   UNL     1      24.230   3.449  50.712  0.00  0.00    +0.000 N 
ATOM     22  C   UNL     1      23.311   2.872  49.847  0.00  0.00    +0.000 A 
ATOM     23  C   UNL     1      22.954   3.153  48.517  0.00  0.00    +0.000 A 
ATOM     24  C   UNL     1      22.149   2.230  47.836  0.00  0.00    +0.000 A 
ATOM     25  C   UNL     1      21.607   1.127  48.486  0.00  0.00    +0.000 A 
ATOM     26  C   UNL     1      21.841   0.938  49.849  0.00  0.00    +0.000 A 
ATOM     27  C   UNL     1      22.721   1.805  50.535  0.00  0.00    +0.000 A 
BRANCH  21  28
ATOM     28  C   UNL     1      25.240   4.446  50.385  0.00  0.00    +0.000 C 
BRANCH  28  29
ATOM     29  C   UNL     1      26.439   3.918  49.572  0.00  0.00    +0.000 C 
BRANCH  29  30
ATOM     30  C   UNL     1      27.216   5.003  48.822  0.00  0.00    +0.000 C 
BRANCH  30  31
ATOM     31  C   UNL     1      26.361   6.269  48.631  0.00  0.00    +0.000 C 
BRANCH  31  32
ATOM     32  C   UNL     1      27.089   7.552  49.037  0.00  0.00    +0.000 C 
BRANCH  32  33
ATOM     33  N   UNL     1      26.699   7.948  50.380  0.00  0.00    +0.000 N 
ATOM     34  H   UNL     1      26.657   8.966  50.437  0.00  0.00    +0.000 HD
ATOM     35  H   UNL     1      27.384   7.598  51.050  0.00  0.00    +0.000 HD
ATOM     36  H   UNL     1      25.782   7.557  50.598  0.00  0.00    +0.000 HD
ENDBRANCH  32  33
ENDBRANCH  31  32
ENDBRANCH  30  31
ENDBRANCH  29  30
ENDBRANCH  28  29
ENDBRANCH  21  28
ENDBRANCH   2  19
TORSDOF 8
ENDMDL
MODEL 2
REMARK VINA RESULT:    -8.705      1.953      3.609
REMARK INTER + INTRA:         -13.716
REMARK INTER:                 -10.936
REMARK INTRA:                  -2.779
REMARK UNBOUND:                -1.195
REMARK  Name = 
REMARK  9 active torsions:
REMARK  status: ('A' for Active; 'I' for Inactive)
REMARK    1  A    between atoms: C_1  and  N_2
REMARK    2  A    between atoms: C_4  and  C_5
REMARK    3  A    between atoms: C_6  and  C_7
REMARK    4  A    between atoms: N_9  and  C_10
REMARK    5  A    between atoms: C_10  and  C_11
REMARK    6  A    between atoms: C_11  and  C_12
REMARK    7  A    between atoms: C_12  and  C_13
REMARK    8  A    between atoms: C_13  and  C_14
REMARK    9  A    between atoms: C_14  and  N_15
REMARK                            x       y       z     vdW  Elec       q    Type
REMARK                         _______ _______ _______ _____ _____    ______ ____
ROOT
ATOM      1  C   UNL     1      23.356  -0.058  53.753  0.00  0.00    +0.000 C 
ATOM      2  C   UNL     1      22.482   0.730  53.113  0.00  0.00    +0.000 C 
ATOM      3  C   UNL     1      21.171   0.613  53.790  0.00  0.00    +0.000 C 
ATOM      4  O   UNL     1      20.143   1.192  53.506  0.00  0.00    +0.000 OA
ATOM      5  N   UNL     1      21.347  -0.262  54.811  0.00  0.00    +0.000 N 
ATOM      6  C   UNL     1      22.602  -0.735  54.836  0.00  0.00    +0.000 C 
ATOM      7  O   UNL     1      23.029  -1.591  55.587  0.00  0.00    +0.000 OA
ATOM      8  H   UNL     1      20.643  -0.517  55.452  0.00  0.00    +0.000 HD
ENDROOT
BRANCH   1  12
ATOM      9  C   UNL     1      27.470  -2.415  52.429  0.00  0.00    +0.000 C 
ATOM     10  N   UNL     1      26.576  -1.369  52.872  0.00  0.00    +0.000 N 
ATOM     11  C   UNL     1      25.228  -1.520  53.063  0.00  0.00    +0.000 A 
ATOM     12  C   UNL     1      24.721  -0.302  53.461  0.00  0.00    +0.000 A 
ATOM     13  C   UNL     1      25.803   0.627  53.512  0.00  0.00    +0.000 A 
ATOM     14  C   UNL     1      25.920   1.996  53.833  0.00  0.00    +0.000 A 
ATOM     15  C   UNL     1      27.177   2.613  53.803  0.00  0.00    +0.000 A 
ATOM     16  C   UNL     1      28.314   1.888  53.459  0.00  0.00    +0.000 A 
ATOM     17  C   UNL     1      28.227   0.533  53.133  0.00  0.00    +0.000 A 
ATOM     18  C   UNL     1      26.961  -0.074  53.158  0.00  0.00    +0.000 A 
ENDBRANCH   1  12
BRANCH   2  19
ATOM     19  C   UNL     1      22.674   1.494  51.942  0.00  0.00    +0.000 A 
ATOM     20  C   UNL     1      22.463   1.043  50.662  0.00  0.00    +0.000 A 
ATOM     21  N   UNL     1      22.719   2.088  49.806  0.00  0.00    +0.000 N 
ATOM     22  C   UNL     1      23.198   3.176  50.521  0.00  0.00    +0.000 A 
ATOM     23  C   UNL     1      23.699   4.427  50.121  0.00  0.00    +0.000 A 
ATOM     24  C   UNL     1      23.885   5.413  51.101  0.00  0.00    +0.000 A 
ATOM     25  C   UNL     1      23.704   5.132  52.450  0.00  0.00    +0.000 A 
ATOM     26  C   UNL     1      23.355   3.841  52.852  0.00  0.00    +0.000 A 
ATOM     27  C   UNL     1      23.075   2.856  51.879  0.00  0.00    +0.000 A 
BRANCH  21  28
ATOM     28  C   UNL     1      22.441   2.026  48.378  0.00  0.00    +0.000 C 
BRANCH  28  29
ATOM     29  C   UNL     1      20.945   2.066  48.003  0.00  0.00    +0.000 C 
BRANCH  29  30
ATOM     30  C   UNL     1      20.221   3.339  48.446  0.00  0.00    +0.000 C 
BRANCH  30  31
ATOM     31  C   UNL     1      19.392   3.095  49.720  0.00  0.00    +0.000 C 
BRANCH  31  32
ATOM     32  C   UNL     1      19.719   4.076  50.847  0.00  0.00    +0.000 C 
BRANCH  32  33
ATOM     33  N   UNL     1      19.265   3.548  52.123  0.00  0.00    +0.000 N 
ATOM     34  H   UNL     1      18.978   2.576  52.007  0.00  0.00    +0.000 HD
ATOM     35  H   UNL     1      18.473   4.098  52.456  0.00  0.00    +0.000 HD
ATOM     36  H   UNL     1      20.024   3.601  52.803  0.00  0.00    +0.000 HD
ENDBRANCH  32  33
ENDBRANCH  31  32
ENDBRANCH  30  31
ENDBRANCH  29  30
ENDBRANCH  28  29
ENDBRANCH  21  28
ENDBRANCH   2  19
TORSDOF 8
ENDMDL
MODEL 3
REMARK VINA RESULT:    -8.485      3.154      6.765
REMARK INTER + INTRA:         -13.400
REMARK INTER:                 -12.139
REMARK INTRA:                  -1.261
REMARK UNBOUND:                -1.195
REMARK  Name = 
REMARK  9 active torsions:
REMARK  status: ('A' for Active; 'I' for Inactive)
REMARK    1  A    between atoms: C_1  and  N_2
REMARK    2  A    between atoms: C_4  and  C_5
REMARK    3  A    between atoms: C_6  and  C_7
REMARK    4  A    between atoms: N_9  and  C_10
REMARK    5  A    between atoms: C_10  and  C_11
REMARK    6  A    between atoms: C_11  and  C_12
REMARK    7  A    between atoms: C_12  and  C_13
REMARK    8  A    between atoms: C_13  and  C_14
REMARK    9  A    between atoms: C_14  and  N_15
REMARK                            x       y       z     vdW  Elec       q    Type
REMARK                         _______ _______ _______ _____ _____    ______ ____
ROOT
ATOM      1  C   UNL     1      19.559   0.119  52.529  0.00  0.00    +0.000 C 
ATOM      2  C   UNL     1      20.889   0.018  52.664  0.00  0.00    +0.000 C 
ATOM      3  C   UNL     1      21.175  -1.091  53.601  0.00  0.00    +0.000 C 
ATOM      4  O   UNL     1      22.266  -1.491  53.954  0.00  0.00    +0.000 OA
ATOM      5  N   UNL     1      19.973  -1.591  53.980  0.00  0.00    +0.000 N 
ATOM      6  C   UNL     1      18.963  -0.907  53.420  0.00  0.00    +0.000 C 
ATOM      7  O   UNL     1      17.778  -1.076  53.637  0.00  0.00    +0.000 OA
ATOM      8  H   UNL     1      19.857  -2.357  54.588  0.00  0.00    +0.000 HD
ENDROOT
BRANCH   1  12
ATOM      9  C   UNL     1      17.857   4.390  50.771  0.00  0.00    +0.000 C 
ATOM     10  N   UNL     1      18.033   2.971  50.980  0.00  0.00    +0.000 N 
ATOM     11  C   UNL     1      18.909   2.413  51.873  0.00  0.00    +0.000 A 
ATOM     12  C   UNL     1      18.805   1.044  51.765  0.00  0.00    +0.000 A 
ATOM     13  C   UNL     1      17.827   0.757  50.766  0.00  0.00    +0.000 A 
ATOM     14  C   UNL     1      17.294  -0.426  50.211  0.00  0.00    +0.000 A 
ATOM     15  C   UNL     1      16.296  -0.346  49.231  0.00  0.00    +0.000 A 
ATOM     16  C   UNL     1      15.824   0.889  48.799  0.00  0.00    +0.000 A 
ATOM     17  C   UNL     1      16.336   2.075  49.328  0.00  0.00    +0.000 A 
ATOM     18  C   UNL     1      17.342   1.985  50.304  0.00  0.00    +0.000 A 
ENDBRANCH   1  12
BRANCH   2  19
ATOM     19  C   UNL     1      21.896   0.842  52.119  0.00  0.00    +0.000 A 
ATOM     20  C   UNL     1      22.932   1.397  52.829  0.00  0.00    +0.000 A 
ATOM     21  N   UNL     1      23.718   2.094  51.942  0.00  0.00    +0.000 N 
ATOM     22  C   UNL     1      23.133   2.079  50.684  0.00  0.00    +0.000 A 
ATOM     23  C   UNL     1      23.467   2.718  49.476  0.00  0.00    +0.000 A 
ATOM     24  C   UNL     1      22.810   2.312  48.307  0.00  0.00    +0.000 A 
ATOM     25  C   UNL     1      21.765   1.396  48.347  0.00  0.00    +0.000 A 
ATOM     26  C   UNL     1      21.336   0.881  49.572  0.00  0.00    +0.000 A 
ATOM     27  C   UNL     1      22.041   1.206  50.753  0.00  0.00    +0.000 A 
BRANCH  21  28
ATOM     28  C   UNL     1      25.000   2.677  52.311  0.00  0.00    +0.000 C 
BRANCH  28  29
ATOM     29  C   UNL     1      26.235   1.957  51.732  0.00  0.00    +0.000 C 
BRANCH  29  30
ATOM     30  C   UNL     1      26.589   0.648  52.442  0.00  0.00    +0.000 C 
BRANCH  30  31
ATOM     31  C   UNL     1      27.224   0.914  53.818  0.00  0.00    +0.000 C 
BRANCH  31  32
ATOM     32  C   UNL     1      28.723   1.209  53.740  0.00  0.00    +0.000 C 
BRANCH  32  33
ATOM     33  N   UNL     1      28.984   2.592  54.105  0.00  0.00    +0.000 N 
ATOM     34  H   UNL     1      28.562   2.791  55.012  0.00  0.00    +0.000 HD
ATOM     35  H   UNL     1      28.583   3.211  53.400  0.00  0.00    +0.000 HD
ATOM     36  H   UNL     1      29.992   2.745  54.157  0.00  0.00    +0.000 HD
ENDBRANCH  32  33
ENDBRANCH  31  32
ENDBRANCH  30  31
ENDBRANCH  29  30
ENDBRANCH  28  29
ENDBRANCH  21  28
ENDBRANCH   2  19
TORSDOF 8
ENDMDL
MODEL 4
REMARK VINA RESULT:    -8.459      2.714      6.279
REMARK INTER + INTRA:         -13.362
REMARK INTER:                 -12.656
REMARK INTRA:                  -0.706
REMARK UNBOUND:                -1.195
REMARK  Name = 
REMARK  9 active torsions:
REMARK  status: ('A' for Active; 'I' for Inactive)
REMARK    1  A    between atoms: C_1  and  N_2
REMARK    2  A    between atoms: C_4  and  C_5
REMARK    3  A    between atoms: C_6  and  C_7
REMARK    4  A    between atoms: N_9  and  C_10
REMARK    5  A    between atoms: C_10  and  C_11
REMARK    6  A    between atoms: C_11  and  C_12
REMARK    7  A    between atoms: C_12  and  C_13
REMARK    8  A    between atoms: C_13  and  C_14
REMARK    9  A    between atoms: C_14  and  N_15
REMARK                            x       y       z     vdW  Elec       q    Type
REMARK                         _______ _______ _______ _____ _____    ______ ____
ROOT
ATOM      1  C   UNL     1      19.885   0.176  52.389  0.00  0.00    +0.000 C 
ATOM      2  C   UNL     1      21.060  -0.009  53.008  0.00  0.00    +0.000 C 
ATOM      3  C   UNL     1      20.880  -1.052  54.041  0.00  0.00    +0.000 C 
ATOM      4  O   UNL     1      21.725  -1.499  54.789  0.00  0.00    +0.000 OA
ATOM      5  N   UNL     1      19.579  -1.431  53.979  0.00  0.00    +0.000 N 
ATOM      6  C   UNL     1      18.911  -0.726  53.053  0.00  0.00    +0.000 C 
ATOM      7  O   UNL     1      17.717  -0.790  52.829  0.00  0.00    +0.000 OA
ATOM      8  H   UNL     1      19.177  -2.133  54.541  0.00  0.00    +0.000 HD
ENDROOT
BRANCH   1  12
ATOM      9  C   UNL     1      17.480   3.642  49.854  0.00  0.00    +0.000 C 
ATOM     10  N   UNL     1      18.461   2.641  50.209  0.00  0.00    +0.000 N 
ATOM     11  C   UNL     1      18.448   1.910  51.368  0.00  0.00    +0.000 A 
ATOM     12  C   UNL     1      19.551   1.084  51.355  0.00  0.00    +0.000 A 
ATOM     13  C   UNL     1      20.263   1.323  50.141  0.00  0.00    +0.000 A 
ATOM     14  C   UNL     1      21.443   0.807  49.566  0.00  0.00    +0.000 A 
ATOM     15  C   UNL     1      21.859   1.260  48.307  0.00  0.00    +0.000 A 
ATOM     16  C   UNL     1      21.119   2.214  47.616  0.00  0.00    +0.000 A 
ATOM     17  C   UNL     1      19.948   2.744  48.163  0.00  0.00    +0.000 A 
ATOM     18  C   UNL     1      19.544   2.290  49.429  0.00  0.00    +0.000 A 
ENDBRANCH   1  12
BRANCH   2  19
ATOM     19  C   UNL     1      22.271   0.691  52.827  0.00  0.00    +0.000 A 
ATOM     20  C   UNL     1      23.507   0.108  52.687  0.00  0.00    +0.000 A 
ATOM     21  N   UNL     1      24.422   1.115  52.492  0.00  0.00    +0.000 N 
ATOM     22  C   UNL     1      23.799   2.348  52.613  0.00  0.00    +0.000 A 
ATOM     23  C   UNL     1      24.293   3.664  52.610  0.00  0.00    +0.000 A 
ATOM     24  C   UNL     1      23.373   4.719  52.514  0.00  0.00    +0.000 A 
ATOM     25  C   UNL     1      22.003   4.487  52.550  0.00  0.00    +0.000 A 
ATOM     26  C   UNL     1      21.520   3.186  52.710  0.00  0.00    +0.000 A 
ATOM     27  C   UNL     1      22.425   2.100  52.718  0.00  0.00    +0.000 A 
BRANCH  21  28
ATOM     28  C   UNL     1      25.813   0.862  52.141  0.00  0.00    +0.000 C 
BRANCH  28  29
ATOM     29  C   UNL     1      26.307  -0.571  52.425  0.00  0.00    +0.000 C 
BRANCH  29  30
ATOM     30  C   UNL     1      27.677  -0.640  53.104  0.00  0.00    +0.000 C 
BRANCH  30  31
ATOM     31  C   UNL     1      27.764   0.344  54.284  0.00  0.00    +0.000 C 
BRANCH  31  32
ATOM     32  C   UNL     1      28.853   1.403  54.104  0.00  0.00    +0.000 C 
BRANCH  32  33
ATOM     33  N   UNL     1      28.267   2.734  54.103  0.00  0.00    +0.000 N 
ATOM     34  H   UNL     1      28.557   3.234  54.943  0.00  0.00    +0.000 HD
ATOM     35  H   UNL     1      27.250   2.658  54.087  0.00  0.00    +0.000 HD
ATOM     36  H   UNL     1      28.582   3.244  53.277  0.00  0.00    +0.000 HD
ENDBRANCH  32  33
ENDBRANCH  31  32
ENDBRANCH  30  31
ENDBRANCH  29  30
ENDBRANCH  28  29
ENDBRANCH  21  28
ENDBRANCH   2  19
TORSDOF 8
ENDMDL
MODEL 5
REMARK VINA RESULT:    -8.431      2.712      6.534
REMARK INTER + INTRA:         -13.322
REMARK INTER:                 -11.359
REMARK INTRA:                  -1.962
REMARK UNBOUND:                -1.195
REMARK  Name = 
REMARK  9 active torsions:
REMARK  status: ('A' for Active; 'I' for Inactive)
REMARK    1  A    between atoms: C_1  and  N_2
REMARK    2  A    between atoms: C_4  and  C_5
REMARK    3  A    between atoms: C_6  and  C_7
REMARK    4  A    between atoms: N_9  and  C_10
REMARK    5  A    between atoms: C_10  and  C_11
REMARK    6  A    between atoms: C_11  and  C_12
REMARK    7  A    between atoms: C_12  and  C_13
REMARK    8  A    between atoms: C_13  and  C_14
REMARK    9  A    between atoms: C_14  and  N_15
REMARK                            x       y       z     vdW  Elec       q    Type
REMARK                         _______ _______ _______ _____ _____    ______ ____
ROOT
ATOM      1  C   UNL     1      24.076   2.766  52.120  0.00  0.00    +0.000 C 
ATOM      2  C   UNL     1      22.976   2.009  52.006  0.00  0.00    +0.000 C 
ATOM      3  C   UNL     1      23.186   0.768  52.783  0.00  0.00    +0.000 C 
ATOM      4  O   UNL     1      22.403  -0.148  52.930  0.00  0.00    +0.000 OA
ATOM      5  N   UNL     1      24.428   0.859  53.320  0.00  0.00    +0.000 N 
ATOM      6  C   UNL     1      25.038   1.994  52.945  0.00  0.00    +0.000 C 
ATOM      7  O   UNL     1      26.183   2.311  53.206  0.00  0.00    +0.000 OA
ATOM      8  H   UNL     1      24.830   0.180  53.909  0.00  0.00    +0.000 HD
ENDROOT
BRANCH   1  12
ATOM      9  C   UNL     1      23.828   7.576  51.104  0.00  0.00    +0.000 C 
ATOM     10  N   UNL     1      24.242   6.191  51.071  0.00  0.00    +0.000 N 
ATOM     11  C   UNL     1      23.687   5.190  51.824  0.00  0.00    +0.000 A 
ATOM     12  C   UNL     1      24.361   4.024  51.534  0.00  0.00    +0.000 A 
ATOM     13  C   UNL     1      25.367   4.328  50.568  0.00  0.00    +0.000 A 
ATOM     14  C   UNL     1      26.358   3.579  49.899  0.00  0.00    +0.000 A 
ATOM     15  C   UNL     1      27.191   4.206  48.964  0.00  0.00    +0.000 A 
ATOM     16  C   UNL     1      27.051   5.562  48.686  0.00  0.00    +0.000 A 
ATOM     17  C   UNL     1      26.081   6.329  49.335  0.00  0.00    +0.000 A 
ATOM     18  C   UNL     1      25.256   5.693  50.278  0.00  0.00    +0.000 A 
ENDBRANCH   1  12
BRANCH   2  19
ATOM     19  C   UNL     1      21.822   2.242  51.229  0.00  0.00    +0.000 A 
ATOM     20  C   UNL     1      20.555   2.418  51.730  0.00  0.00    +0.000 A 
ATOM     21  N   UNL     1      19.717   2.659  50.667  0.00  0.00    +0.000 N 
ATOM     22  C   UNL     1      20.418   2.531  49.476  0.00  0.00    +0.000 A 
ATOM     23  C   UNL     1      20.015   2.569  48.130  0.00  0.00    +0.000 A 
ATOM     24  C   UNL     1      21.007   2.646  47.142  0.00  0.00    +0.000 A 
ATOM     25  C   UNL     1      22.356   2.558  47.465  0.00  0.00    +0.000 A 
ATOM     26  C   UNL     1      22.744   2.365  48.792  0.00  0.00    +0.000 A 
ATOM     27  C   UNL     1      21.768   2.374  49.814  0.00  0.00    +0.000 A 
BRANCH  21  28
ATOM     28  C   UNL     1      18.326   3.056  50.831  0.00  0.00    +0.000 C 
BRANCH  28  29
ATOM     29  C   UNL     1      17.421   2.000  51.498  0.00  0.00    +0.000 C 
BRANCH  29  30
ATOM     30  C   UNL     1      17.551   0.596  50.902  0.00  0.00    +0.000 C 
BRANCH  30  31
ATOM     31  C   UNL     1      18.244  -0.365  51.884  0.00  0.00    +0.000 C 
BRANCH  31  32
ATOM     32  C   UNL     1      17.266  -1.287  52.613  0.00  0.00    +0.000 C 
BRANCH  32  33
ATOM     33  N   UNL     1      17.606  -1.368  54.025  0.00  0.00    +0.000 N 
ATOM     34  H   UNL     1      16.758  -1.281  54.585  0.00  0.00    +0.000 HD
ATOM     35  H   UNL     1      18.250  -0.613  54.263  0.00  0.00    +0.000 HD
ATOM     36  H   UNL     1      18.050  -2.266  54.217  0.00  0.00    +0.000 HD
ENDBRANCH  32  33
ENDBRANCH  31  32
ENDBRANCH  30  31
ENDBRANCH  29  30
ENDBRANCH  28  29
ENDBRANCH  21  28
ENDBRANCH   2  19
TORSDOF 8
ENDMDL
MODEL 6
REMARK VINA RESULT:    -8.369      2.818      6.303
REMARK INTER + INTRA:         -13.233
REMARK INTER:                 -11.820
REMARK INTRA:                  -1.413
REMARK UNBOUND:                -1.195
REMARK  Name = 
REMARK  9 active torsions:
REMARK  status: ('A' for Active; 'I' for Inactive)
REMARK    1  A    between atoms: C_1  and  N_2
REMARK    2  A    between atoms: C_4  and  C_5
REMARK    3  A    between atoms: C_6  and  C_7
REMARK    4  A    between atoms: N_9  and  C_10
REMARK    5  A    between atoms: C_10  and  C_11
REMARK    6  A    between atoms: C_11  and  C_12
REMARK    7  A    between atoms: C_12  and  C_13
REMARK    8  A    between atoms: C_13  and  C_14
REMARK    9  A    between atoms: C_14  and  N_15
REMARK                            x       y       z     vdW  Elec       q    Type
REMARK                         _______ _______ _______ _____ _____    ______ ____
ROOT
ATOM      1  C   UNL     1      20.097   0.502  51.363  0.00  0.00    +0.000 C 
ATOM      2  C   UNL     1      20.775   0.041  52.424  0.00  0.00    +0.000 C 
ATOM      3  C   UNL     1      19.838  -0.731  53.271  0.00  0.00    +0.000 C 
ATOM      4  O   UNL     1      20.093  -1.313  54.306  0.00  0.00    +0.000 OA
ATOM      5  N   UNL     1      18.632  -0.678  52.654  0.00  0.00    +0.000 N 
ATOM      6  C   UNL     1      18.689   0.065  51.538  0.00  0.00    +0.000 C 
ATOM      7  O   UNL     1      17.749   0.355  50.823  0.00  0.00    +0.000 OA
ATOM      8  H   UNL     1      17.819  -1.126  52.983  0.00  0.00    +0.000 HD
ENDROOT
BRANCH   1  12
ATOM      9  C   UNL     1      22.525   1.924  47.325  0.00  0.00    +0.000 C 
ATOM     10  N   UNL     1      21.654   1.954  48.478  0.00  0.00    +0.000 N 
ATOM     11  C   UNL     1      21.466   0.910  49.345  0.00  0.00    +0.000 A 
ATOM     12  C   UNL     1      20.552   1.312  50.294  0.00  0.00    +0.000 A 
ATOM     13  C   UNL     1      20.168   2.653  49.993  0.00  0.00    +0.000 A 
ATOM     14  C   UNL     1      19.284   3.586  50.575  0.00  0.00    +0.000 A 
ATOM     15  C   UNL     1      19.160   4.866  50.020  0.00  0.00    +0.000 A 
ATOM     16  C   UNL     1      19.901   5.228  48.899  0.00  0.00    +0.000 A 
ATOM     17  C   UNL     1      20.781   4.324  48.301  0.00  0.00    +0.000 A 
ATOM     18  C   UNL     1      20.892   3.040  48.859  0.00  0.00    +0.000 A 
ENDBRANCH   1  12
BRANCH   2  19
ATOM     19  C   UNL     1      22.116   0.282  52.787  0.00  0.00    +0.000 A 
ATOM     20  C   UNL     1      23.021  -0.685  53.151  0.00  0.00    +0.000 A 
ATOM     21  N   UNL     1      24.223  -0.061  53.389  0.00  0.00    +0.000 N 
ATOM     22  C   UNL     1      24.068   1.314  53.283  0.00  0.00    +0.000 A 
ATOM     23  C   UNL     1      24.942   2.388  53.531  0.00  0.00    +0.000 A 
ATOM     24  C   UNL     1      24.561   3.667  53.100  0.00  0.00    +0.000 A 
ATOM     25  C   UNL     1      23.303   3.900  52.557  0.00  0.00    +0.000 A 
ATOM     26  C   UNL     1      22.382   2.855  52.456  0.00  0.00    +0.000 A 
ATOM     27  C   UNL     1      22.774   1.542  52.800  0.00  0.00    +0.000 A 
BRANCH  21  28
ATOM     28  C   UNL     1      25.458  -0.791  53.637  0.00  0.00    +0.000 C 
BRANCH  28  29
ATOM     29  C   UNL     1      26.482  -0.752  52.484  0.00  0.00    +0.000 C 
BRANCH  29  30
ATOM     30  C   UNL     1      27.916  -0.450  52.928  0.00  0.00    +0.000 C 
BRANCH  30  31
ATOM     31  C   UNL     1      27.937   0.293  54.276  0.00  0.00    +0.000 C 
BRANCH  31  32
ATOM     32  C   UNL     1      29.022   1.369  54.351  0.00  0.00    +0.000 C 
BRANCH  32  33
ATOM     33  N   UNL     1      28.445   2.684  54.124  0.00  0.00    +0.000 N 
ATOM     34  H   UNL     1      27.473   2.687  54.431  0.00  0.00    +0.000 HD
ATOM     35  H   UNL     1      28.488   2.907  53.129  0.00  0.00    +0.000 HD
ATOM     36  H   UNL     1      28.971   3.382  54.651  0.00  0.00    +0.000 HD
ENDBRANCH  32  33
ENDBRANCH  31  32
ENDBRANCH  30  31
ENDBRANCH  29  30
ENDBRANCH  28  29
ENDBRANCH  21  28
ENDBRANCH   2  19
TORSDOF 8
ENDMDL
MODEL 7
REMARK VINA RESULT:    -8.333      2.196      5.713
REMARK INTER + INTRA:         -13.182
REMARK INTER:                 -12.107
REMARK INTRA:                  -1.074
REMARK UNBOUND:                -1.195
REMARK  Name = 
REMARK  9 active torsions:
REMARK  status: ('A' for Active; 'I' for Inactive)
REMARK    1  A    between atoms: C_1  and  N_2
REMARK    2  A    between atoms: C_4  and  C_5
REMARK    3  A    between atoms: C_6  and  C_7
REMARK    4  A    between atoms: N_9  and  C_10
REMARK    5  A    between atoms: C_10  and  C_11
REMARK    6  A    between atoms: C_11  and  C_12
REMARK    7  A    between atoms: C_12  and  C_13
REMARK    8  A    between atoms: C_13  and  C_14
REMARK    9  A    between atoms: C_14  and  N_15
REMARK                            x       y       z     vdW  Elec       q    Type
REMARK                         _______ _______ _______ _____ _____    ______ ____
ROOT
ATOM      1  C   UNL     1      20.250   0.082  52.735  0.00  0.00    +0.000 C 
ATOM      2  C   UNL     1      21.452   0.078  53.330  0.00  0.00    +0.000 C 
ATOM      3  C   UNL     1      21.448  -0.970  54.375  0.00  0.00    +0.000 C 
ATOM      4  O   UNL     1      22.364  -1.280  55.107  0.00  0.00    +0.000 OA
ATOM      5  N   UNL     1      20.215  -1.536  54.343  0.00  0.00    +0.000 N 
ATOM      6  C   UNL     1      19.433  -0.946  53.427  0.00  0.00    +0.000 C 
ATOM      7  O   UNL     1      18.257  -1.186  53.229  0.00  0.00    +0.000 OA
ATOM      8  H   UNL     1      19.932  -2.283  54.919  0.00  0.00    +0.000 HD
ENDROOT
BRANCH   1  12
ATOM      9  C   UNL     1      17.340   3.179  50.252  0.00  0.00    +0.000 C 
ATOM     10  N   UNL     1      18.448   2.311  50.581  0.00  0.00    +0.000 N 
ATOM     11  C   UNL     1      18.573   1.609  51.751  0.00  0.00    +0.000 A 
ATOM     12  C   UNL     1      19.766   0.921  51.702  0.00  0.00    +0.000 A 
ATOM     13  C   UNL     1      20.392   1.217  50.454  0.00  0.00    +0.000 A 
ATOM     14  C   UNL     1      21.601   0.833  49.836  0.00  0.00    +0.000 A 
ATOM     15  C   UNL     1      21.905   1.305  48.552  0.00  0.00    +0.000 A 
ATOM     16  C   UNL     1      21.027   2.148  47.879  0.00  0.00    +0.000 A 
ATOM     17  C   UNL     1      19.825   2.546  48.469  0.00  0.00    +0.000 A 
ATOM     18  C   UNL     1      19.532   2.075  49.759  0.00  0.00    +0.000 A 
ENDBRANCH   1  12
BRANCH   2  19
ATOM     19  C   UNL     1      22.544   0.945  53.118  0.00  0.00    +0.000 A 
ATOM     20  C   UNL     1      22.463   2.315  53.056  0.00  0.00    +0.000 A 
ATOM     21  N   UNL     1      23.738   2.799  52.880  0.00  0.00    +0.000 N 
ATOM     22  C   UNL     1      24.624   1.743  52.720  0.00  0.00    +0.000 A 
ATOM     23  C   UNL     1      25.995   1.695  52.409  0.00  0.00    +0.000 A 
ATOM     24  C   UNL     1      26.666   0.472  52.553  0.00  0.00    +0.000 A 
ATOM     25  C   UNL     1      25.979  -0.694  52.870  0.00  0.00    +0.000 A 
ATOM     26  C   UNL     1      24.592  -0.667  53.025  0.00  0.00    +0.000 A 
ATOM     27  C   UNL     1      23.907   0.568  52.973  0.00  0.00    +0.000 A 
BRANCH  21  28
ATOM     28  C   UNL     1      24.060   4.218  52.935  0.00  0.00    +0.000 C 
BRANCH  28  29
ATOM     29  C   UNL     1      24.012   4.951  51.579  0.00  0.00    +0.000 C 
BRANCH  29  30
ATOM     30  C   UNL     1      24.037   4.022  50.362  0.00  0.00    +0.000 C 
BRANCH  30  31
ATOM     31  C   UNL     1      25.111   4.458  49.350  0.00  0.00    +0.000 C 
BRANCH  31  32
ATOM     32  C   UNL     1      26.434   3.709  49.518  0.00  0.00    +0.000 C 
BRANCH  32  33
ATOM     33  N   UNL     1      27.547   4.644  49.515  0.00  0.00    +0.000 N 
ATOM     34  H   UNL     1      28.370   4.196  49.916  0.00  0.00    +0.000 HD
ATOM     35  H   UNL     1      27.303   5.465  50.069  0.00  0.00    +0.000 HD
ATOM     36  H   UNL     1      27.749   4.930  48.556  0.00  0.00    +0.000 HD
ENDBRANCH  32  33
ENDBRANCH  31  32
ENDBRANCH  30  31
ENDBRANCH  29  30
ENDBRANCH  28  29
ENDBRANCH  21  28
ENDBRANCH   2  19
TORSDOF 8
ENDMDL
MODEL 8
REMARK VINA RESULT:    -8.166      1.228      2.202
REMARK INTER + INTRA:         -12.940
REMARK INTER:                 -12.367
REMARK INTRA:                  -0.574
REMARK UNBOUND:                -1.195
REMARK  Name = 
REMARK  9 active torsions:
REMARK  status: ('A' for Active; 'I' for Inactive)
REMARK    1  A    between atoms: C_1  and  N_2
REMARK    2  A    between atoms: C_4  and  C_5
REMARK    3  A    between atoms: C_6  and  C_7
REMARK    4  A    between atoms: N_9  and  C_10
REMARK    5  A    between atoms: C_10  and  C_11
REMARK    6  A    between atoms: C_11  and  C_12
REMARK    7  A    between atoms: C_12  and  C_13
REMARK    8  A    between atoms: C_13  and  C_14
REMARK    9  A    between atoms: C_14  and  N_15
REMARK                            x       y       z     vdW  Elec       q    Type
REMARK                         _______ _______ _______ _____ _____    ______ ____
ROOT
ATOM      1  C   UNL     1      23.668   0.836  53.325  0.00  0.00    +0.000 C 
ATOM      2  C   UNL     1      22.806   1.562  52.598  0.00  0.00    +0.000 C 
ATOM      3  C   UNL     1      21.434   1.111  52.921  0.00  0.00    +0.000 C 
ATOM      4  O   UNL     1      20.394   1.547  52.473  0.00  0.00    +0.000 OA
ATOM      5  N   UNL     1      21.564   0.118  53.835  0.00  0.00    +0.000 N 
ATOM      6  C   UNL     1      22.855  -0.133  54.101  0.00  0.00    +0.000 C 
ATOM      7  O   UNL     1      23.278  -1.019  54.819  0.00  0.00    +0.000 OA
ATOM      8  H   UNL     1      20.808  -0.357  54.250  0.00  0.00    +0.000 HD
ENDROOT
BRANCH   1  12
ATOM      9  C   UNL     1      28.253   2.567  53.786  0.00  0.00    +0.000 C 
ATOM     10  N   UNL     1      27.150   1.665  53.541  0.00  0.00    +0.000 N 
ATOM     11  C   UNL     1      25.826   2.009  53.615  0.00  0.00    +0.000 A 
ATOM     12  C   UNL     1      25.083   0.880  53.342  0.00  0.00    +0.000 A 
ATOM     13  C   UNL     1      25.992  -0.192  53.093  0.00  0.00    +0.000 A 
ATOM     14  C   UNL     1      25.848  -1.559  52.774  0.00  0.00    +0.000 A 
ATOM     15  C   UNL     1      26.987  -2.348  52.566  0.00  0.00    +0.000 A 
ATOM     16  C   UNL     1      28.260  -1.796  52.671  0.00  0.00    +0.000 A 
ATOM     17  C   UNL     1      28.432  -0.448  52.988  0.00  0.00    +0.000 A 
ATOM     18  C   UNL     1      27.284   0.333  53.203  0.00  0.00    +0.000 A 
ENDBRANCH   1  12
BRANCH   2  19
ATOM     19  C   UNL     1      23.083   2.534  51.615  0.00  0.00    +0.000 A 
ATOM     20  C   UNL     1      23.729   3.725  51.841  0.00  0.00    +0.000 A 
ATOM     21  N   UNL     1      23.842   4.373  50.634  0.00  0.00    +0.000 N 
ATOM     22  C   UNL     1      23.177   3.655  49.650  0.00  0.00    +0.000 A 
ATOM     23  C   UNL     1      22.904   3.928  48.298  0.00  0.00    +0.000 A 
ATOM     24  C   UNL     1      22.411   2.888  47.497  0.00  0.00    +0.000 A 
ATOM     25  C   UNL     1      22.077   1.654  48.042  0.00  0.00    +0.000 A 
ATOM     26  C   UNL     1      22.206   1.440  49.415  0.00  0.00    +0.000 A 
ATOM     27  C   UNL     1      22.784   2.442  50.228  0.00  0.00    +0.000 A 
BRANCH  21  28
ATOM     28  C   UNL     1      24.620   5.591  50.460  0.00  0.00    +0.000 C 
BRANCH  28  29
ATOM     29  C   UNL     1      24.347   6.359  49.150  0.00  0.00    +0.000 C 
BRANCH  29  30
ATOM     30  C   UNL     1      25.586   6.571  48.277  0.00  0.00    +0.000 C 
BRANCH  30  31
ATOM     31  C   UNL     1      26.879   6.326  49.075  0.00  0.00    +0.000 C 
BRANCH  31  32
ATOM     32  C   UNL     1      27.749   5.217  48.482  0.00  0.00    +0.000 C 
BRANCH  32  33
ATOM     33  N   UNL     1      29.130   5.379  48.906  0.00  0.00    +0.000 N 
ATOM     34  H   UNL     1      29.453   4.520  49.351  0.00  0.00    +0.000 HD
ATOM     35  H   UNL     1      29.194   6.151  49.569  0.00  0.00    +0.000 HD
ATOM     36  H   UNL     1      29.714   5.581  48.093  0.00  0.00    +0.000 HD
ENDBRANCH  32  33
ENDBRANCH  31  32
ENDBRANCH  30  31
ENDBRANCH  29  30
ENDBRANCH  28  29
ENDBRANCH  21  28
ENDBRANCH   2  19
TORSDOF 8
ENDMDL
MODEL 9
REMARK VINA RESULT:    -7.949      2.496      5.697
REMARK INTER + INTRA:         -12.628
REMARK INTER:                 -10.626
REMARK INTRA:                  -2.002
REMARK UNBOUND:                -1.195
REMARK  Name = 
REMARK  9 active torsions:
REMARK  status: ('A' for Active; 'I' for Inactive)
REMARK    1  A    between atoms: C_1  and  N_2
REMARK    2  A    between atoms: C_4  and  C_5
REMARK    3  A    between atoms: C_6  and  C_7
REMARK    4  A    between atoms: N_9  and  C_10
REMARK    5  A    between atoms: C_10  and  C_11
REMARK    6  A    between atoms: C_11  and  C_12
REMARK    7  A    between atoms: C_12  and  C_13
REMARK    8  A    between atoms: C_13  and  C_14
REMARK    9  A    between atoms: C_14  and  N_15
REMARK                            x       y       z     vdW  Elec       q    Type
REMARK                         _______ _______ _______ _____ _____    ______ ____
ROOT
ATOM      1  C   UNL     1      23.412   1.320  52.170  0.00  0.00    +0.000 C 
ATOM      2  C   UNL     1      24.381   2.244  52.240  0.00  0.00    +0.000 C 
ATOM      3  C   UNL     1      25.424   1.750  53.167  0.00  0.00    +0.000 C 
ATOM      4  O   UNL     1      26.462   2.304  53.467  0.00  0.00    +0.000 OA
ATOM      5  N   UNL     1      25.002   0.539  53.606  0.00  0.00    +0.000 N 
ATOM      6  C   UNL     1      23.802   0.227  53.094  0.00  0.00    +0.000 C 
ATOM      7  O   UNL     1      23.140  -0.756  53.369  0.00  0.00    +0.000 OA
ATOM      8  H   UNL     1      25.511  -0.037  54.222  0.00  0.00    +0.000 HD
ENDROOT
BRANCH   1  12
ATOM      9  C   UNL     1      18.632   0.852  51.090  0.00  0.00    +0.000 C 
ATOM     10  N   UNL     1      20.044   1.131  50.953  0.00  0.00    +0.000 N 
ATOM     11  C   UNL     1      20.977   0.956  51.941  0.00  0.00    +0.000 A 
ATOM     12  C   UNL     1      22.198   1.351  51.440  0.00  0.00    +0.000 A 
ATOM     13  C   UNL     1      22.000   1.785  50.095  0.00  0.00    +0.000 A 
ATOM     14  C   UNL     1      22.842   2.297  49.084  0.00  0.00    +0.000 A 
ATOM     15  C   UNL     1      22.308   2.610  47.828  0.00  0.00    +0.000 A 
ATOM     16  C   UNL     1      20.955   2.420  47.564  0.00  0.00    +0.000 A 
ATOM     17  C   UNL     1      20.099   1.918  48.547  0.00  0.00    +0.000 A 
ATOM     18  C   UNL     1      20.642   1.616  49.807  0.00  0.00    +0.000 A 
ENDBRANCH   1  12
BRANCH   2  19
ATOM     19  C   UNL     1      24.428   3.521  51.643  0.00  0.00    +0.000 A 
ATOM     20  C   UNL     1      23.595   4.568  51.952  0.00  0.00    +0.000 A 
ATOM     21  N   UNL     1      23.981   5.646  51.190  0.00  0.00    +0.000 N 
ATOM     22  C   UNL     1      24.988   5.266  50.314  0.00  0.00    +0.000 A 
ATOM     23  C   UNL     1      25.642   5.944  49.270  0.00  0.00    +0.000 A 
ATOM     24  C   UNL     1      26.792   5.362  48.718  0.00  0.00    +0.000 A 
ATOM     25  C   UNL     1      27.211   4.092  49.096  0.00  0.00    +0.000 A 
ATOM     26  C   UNL     1      26.466   3.360  50.023  0.00  0.00    +0.000 A 
ATOM     27  C   UNL     1      25.355   3.960  50.658  0.00  0.00    +0.000 A 
BRANCH  21  28
ATOM     28  C   UNL     1      23.429   6.981  51.371  0.00  0.00    +0.000 C 
BRANCH  28  29
ATOM     29  C   UNL     1      22.587   7.504  50.190  0.00  0.00    +0.000 C 
BRANCH  29  30
ATOM     30  C   UNL     1      21.924   6.404  49.356  0.00  0.00    +0.000 C 
BRANCH  30  31
ATOM     31  C   UNL     1      20.439   6.243  49.726  0.00  0.00    +0.000 C 
BRANCH  31  32
ATOM     32  C   UNL     1      20.171   5.034  50.623  0.00  0.00    +0.000 C 
BRANCH  32  33
ATOM     33  N   UNL     1      18.782   4.620  50.510  0.00  0.00    +0.000 N 
ATOM     34  H   UNL     1      18.398   4.951  49.626  0.00  0.00    +0.000 HD
ATOM     35  H   UNL     1      18.246   5.016  51.283  0.00  0.00    +0.000 HD
ATOM     36  H   UNL     1      18.726   3.601  50.546  0.00  0.00    +0.000 HD
ENDBRANCH  32  33
ENDBRANCH  31  32
ENDBRANCH  30  31
ENDBRANCH  29  30
ENDBRANCH  28  29
ENDBRANCH  21  28
ENDBRANCH   2  19
TORSDOF 8
ENDMDL
