MODEL 1
REMARK VINA RESULT:    -7.963      0.000      0.000
REMARK INTER + INTRA:          -9.657
REMARK INTER:                  -9.359
REMARK INTRA:                  -0.298
REMARK UNBOUND:                -0.298
REMARK  Name = 
REMARK  4 active torsions:
REMARK  status: ('A' for Active; 'I' for Inactive)
REMARK    1  A    between atoms: C_1  and  O_2
REMARK    2  A    between atoms: O_2  and  C_3
REMARK    3  A    between atoms: N_10  and  S_11
REMARK    4  A    between atoms: S_11  and  C_14
REMARK                            x       y       z     vdW  Elec       q    Type
REMARK                         _______ _______ _______ _____ _____    ______ ____
ROOT
ATOM      1  S   UNL     1      22.747   2.300  52.111  0.00  0.00    +0.000 S 
ATOM      2  O   UNL     1      23.770   2.740  53.041  0.00  0.00    +0.000 OA
ATOM      3  O   UNL     1      21.537   3.061  51.904  0.00  0.00    +0.000 OA
ENDROOT
BRANCH   1   4
ATOM      4  C   UNL     1      22.335   0.602  52.505  0.00  0.00    +0.000 A 
ATOM      5  C   UNL     1      20.973   0.306  52.358  0.00  0.00    +0.000 A 
ATOM      6  C   UNL     1      20.348  -0.453  53.331  0.00  0.00    +0.000 A 
ATOM      7  C   UNL     1      21.089  -0.938  54.409  0.00  0.00    +0.000 A 
ATOM      8  C   UNL     1      22.487  -0.799  54.453  0.00  0.00    +0.000 A 
ATOM      9  C   UNL     1      23.226  -1.356  55.509  0.00  0.00    +0.000 A 
ATOM     10  C   UNL     1      24.620  -1.296  55.528  0.00  0.00    +0.000 A 
ATOM     11  C   UNL     1      25.295  -0.666  54.492  0.00  0.00    +0.000 A 
ATOM     12  C   UNL     1      24.573  -0.044  53.473  0.00  0.00    +0.000 A 
ATOM     13  C   UNL     1      23.154  -0.070  53.448  0.00  0.00    +0.000 A 
ENDBRANCH   1   4
BRANCH   1  21
ATOM     14  C   UNL     1      25.719   3.023  50.393  0.00  0.00    +0.000 A 
ATOM     15  N   UNL     1      26.504   4.046  49.971  0.00  0.00    +0.000 NA
ATOM     16  C   UNL     1      25.856   5.047  49.330  0.00  0.00    +0.000 A 
ATOM     17 BR   UNL     1      26.864   6.530  48.724  0.00  0.00    +0.000 Br
ATOM     18  C   UNL     1      24.485   5.014  49.093  0.00  0.00    +0.000 A 
ATOM     19  N   UNL     1      23.688   3.993  49.484  0.00  0.00    +0.000 NA
ATOM     20  C   UNL     1      24.335   3.009  50.149  0.00  0.00    +0.000 A 
ATOM     21  N   UNL     1      23.451   2.001  50.586  0.00  0.00    +0.000 N 
ATOM     22  H   UNL     1      23.256   1.194  50.057  0.00  0.00    +0.000 HD
BRANCH  14  24
ATOM     23  C   UNL     1      27.124   2.280  52.119  0.00  0.00    +0.000 C 
ATOM     24  O   UNL     1      26.304   1.932  51.005  0.00  0.00    +0.000 OA
ENDBRANCH  14  24
ENDBRANCH   1  21
TORSDOF 3
ENDMDL
MODEL 2
REMARK VINA RESULT:    -7.834      2.994      4.797
REMARK INTER + INTRA:          -9.506
REMARK INTER:                  -9.094
REMARK INTRA:                  -0.412
REMARK UNBOUND:                -0.298
REMARK  Name = 
REMARK  4 active torsions:
REMARK  status: ('A' for Active; 'I' for Inactive)
REMARK    1  A    between atoms: C_1  and  O_2
REMARK    2  A    between atoms: O_2  and  C_3
REMARK    3  A    between atoms: N_10  and  S_11
REMARK    4  A    between atoms: S_11  and  C_14
REMARK                            x       y       z     vdW  Elec       q    Type
REMARK                         _______ _______ _______ _____ _____    ______ ____
ROOT
ATOM      1  S   UNL     1      25.744   1.505  51.784  0.00  0.00    +0.000 S 
ATOM      2  O   UNL     1      24.512   0.757  51.961  0.00  0.00    +0.000 OA
ATOM      3  O   UNL     1      26.496   1.440  50.554  0.00  0.00    +0.000 OA
ENDROOT
BRANCH   1   4
ATOM      4  C   UNL     1      26.817   1.136  53.170  0.00  0.00    +0.000 A 
ATOM      5  C   UNL     1      27.391   2.274  53.754  0.00  0.00    +0.000 A 
ATOM      6  C   UNL     1      28.730   2.241  54.101  0.00  0.00    +0.000 A 
ATOM      7  C   UNL     1      29.465   1.073  53.901  0.00  0.00    +0.000 A 
ATOM      8  C   UNL     1      28.842  -0.120  53.493  0.00  0.00    +0.000 A 
ATOM      9  C   UNL     1      29.584  -1.305  53.367  0.00  0.00    +0.000 A 
ATOM     10  C   UNL     1      28.968  -2.514  53.040  0.00  0.00    +0.000 A 
ATOM     11  C   UNL     1      27.598  -2.550  52.826  0.00  0.00    +0.000 A 
ATOM     12  C   UNL     1      26.857  -1.369  52.875  0.00  0.00    +0.000 A 
ATOM     13  C   UNL     1      27.468  -0.124  53.179  0.00  0.00    +0.000 A 
ENDBRANCH   1   4
BRANCH   1  21
ATOM     14  C   UNL     1      23.372   4.001  51.113  0.00  0.00    +0.000 A 
ATOM     15  N   UNL     1      22.760   4.668  50.104  0.00  0.00    +0.000 NA
ATOM     16  C   UNL     1      23.584   5.155  49.147  0.00  0.00    +0.000 A 
ATOM     17 BR   UNL     1      22.820   6.082  47.685  0.00  0.00    +0.000 Br
ATOM     18  C   UNL     1      24.967   5.007  49.211  0.00  0.00    +0.000 A 
ATOM     19  N   UNL     1      25.599   4.365  50.220  0.00  0.00    +0.000 NA
ATOM     20  C   UNL     1      24.769   3.856  51.159  0.00  0.00    +0.000 A 
ATOM     21  N   UNL     1      25.474   3.148  52.154  0.00  0.00    +0.000 N 
ATOM     22  H   UNL     1      25.783   3.565  52.990  0.00  0.00    +0.000 HD
BRANCH  14  24
ATOM     23  C   UNL     1      21.235   3.879  52.075  0.00  0.00    +0.000 C 
ATOM     24  O   UNL     1      22.613   3.521  52.163  0.00  0.00    +0.000 OA
ENDBRANCH  14  24
ENDBRANCH   1  21
TORSDOF 3
ENDMDL
MODEL 3
REMARK VINA RESULT:    -7.570      1.769      2.445
REMARK INTER + INTRA:          -9.196
REMARK INTER:                  -8.675
REMARK INTRA:                  -0.520
REMARK UNBOUND:                -0.298
REMARK  Name = 
REMARK  4 active torsions:
REMARK  status: ('A' for Active; 'I' for Inactive)
REMARK    1  A    between atoms: C_1  and  O_2
REMARK    2  A    between atoms: O_2  and  C_3
REMARK    3  A    between atoms: N_10  and  S_11
REMARK    4  A    between atoms: S_11  and  C_14
REMARK                            x       y       z     vdW  Elec       q    Type
REMARK                         _______ _______ _______ _____ _____    ______ ____
ROOT
ATOM      1  S   UNL     1      24.408   2.623  52.256  0.00  0.00    +0.000 S 
ATOM      2  O   UNL     1      25.558   2.546  51.374  0.00  0.00    +0.000 OA
ATOM      3  O   UNL     1      24.546   2.991  53.645  0.00  0.00    +0.000 OA
ENDROOT
BRANCH   1   4
ATOM      4  C   UNL     1      23.508   1.080  52.126  0.00  0.00    +0.000 A 
ATOM      5  C   UNL     1      22.379   1.156  51.299  0.00  0.00    +0.000 A 
ATOM      6  C   UNL     1      21.205   0.554  51.717  0.00  0.00    +0.000 A 
ATOM      7  C   UNL     1      21.181  -0.144  52.924  0.00  0.00    +0.000 A 
ATOM      8  C   UNL     1      22.359  -0.378  53.654  0.00  0.00    +0.000 A 
ATOM      9  C   UNL     1      22.329  -1.145  54.830  0.00  0.00    +0.000 A 
ATOM     10  C   UNL     1      23.500  -1.454  55.524  0.00  0.00    +0.000 A 
ATOM     11  C   UNL     1      24.719  -0.988  55.054  0.00  0.00    +0.000 A 
ATOM     12  C   UNL     1      24.759  -0.164  53.929  0.00  0.00    +0.000 A 
ATOM     13  C   UNL     1      23.577   0.184  53.224  0.00  0.00    +0.000 A 
ENDBRANCH   1   4
BRANCH   1  21
ATOM     14  C   UNL     1      23.926   4.497  49.330  0.00  0.00    +0.000 A 
ATOM     15  N   UNL     1      24.459   5.499  48.587  0.00  0.00    +0.000 NA
ATOM     16  C   UNL     1      24.803   6.612  49.277  0.00  0.00    +0.000 A 
ATOM     17 BR   UNL     1      25.575   8.057  48.330  0.00  0.00    +0.000 Br
ATOM     18  C   UNL     1      24.597   6.730  50.649  0.00  0.00    +0.000 A 
ATOM     19  N   UNL     1      24.046   5.752  51.404  0.00  0.00    +0.000 NA
ATOM     20  C   UNL     1      23.730   4.632  50.716  0.00  0.00    +0.000 A 
ATOM     21  N   UNL     1      23.217   3.625  51.558  0.00  0.00    +0.000 N 
ATOM     22  H   UNL     1      22.254   3.509  51.729  0.00  0.00    +0.000 HD
BRANCH  14  24
ATOM     23  C   UNL     1      22.264   3.518  47.993  0.00  0.00    +0.000 C 
ATOM     24  O   UNL     1      23.492   3.347  48.700  0.00  0.00    +0.000 OA
ENDBRANCH  14  24
ENDBRANCH   1  21
TORSDOF 3
ENDMDL
MODEL 4
REMARK VINA RESULT:    -7.517      2.635      4.302
REMARK INTER + INTRA:          -9.133
REMARK INTER:                  -8.762
REMARK INTRA:                  -0.371
REMARK UNBOUND:                -0.298
REMARK  Name = 
REMARK  4 active torsions:
REMARK  status: ('A' for Active; 'I' for Inactive)
REMARK    1  A    between atoms: C_1  and  O_2
REMARK    2  A    between atoms: O_2  and  C_3
REMARK    3  A    between atoms: N_10  and  S_11
REMARK    4  A    between atoms: S_11  and  C_14
REMARK                            x       y       z     vdW  Elec       q    Type
REMARK                         _______ _______ _______ _____ _____    ______ ____
ROOT
ATOM      1  S   UNL     1      24.778   3.349  51.149  0.00  0.00    +0.000 S 
ATOM      2  O   UNL     1      23.644   2.809  50.422  0.00  0.00    +0.000 OA
ATOM      3  O   UNL     1      25.964   3.809  50.466  0.00  0.00    +0.000 OA
ENDROOT
BRANCH   1   4
ATOM      4  C   UNL     1      25.231   2.172  52.421  0.00  0.00    +0.000 A 
ATOM      5  C   UNL     1      26.590   1.828  52.409  0.00  0.00    +0.000 A 
ATOM      6  C   UNL     1      26.942   0.500  52.572  0.00  0.00    +0.000 A 
ATOM      7  C   UNL     1      25.948  -0.456  52.782  0.00  0.00    +0.000 A 
ATOM      8  C   UNL     1      24.607  -0.082  52.981  0.00  0.00    +0.000 A 
ATOM      9  C   UNL     1      23.632  -1.051  53.264  0.00  0.00    +0.000 A 
ATOM     10  C   UNL     1      22.312  -0.690  53.542  0.00  0.00    +0.000 A 
ATOM     11  C   UNL     1      21.950   0.649  53.532  0.00  0.00    +0.000 A 
ATOM     12  C   UNL     1      22.890   1.619  53.181  0.00  0.00    +0.000 A 
ATOM     13  C   UNL     1      24.231   1.271  52.868  0.00  0.00    +0.000 A 
ENDBRANCH   1   4
BRANCH   1  21
ATOM     14  C   UNL     1      22.114   5.617  51.403  0.00  0.00    +0.000 A 
ATOM     15  N   UNL     1      21.474   6.613  50.741  0.00  0.00    +0.000 NA
ATOM     16  C   UNL     1      22.276   7.570  50.218  0.00  0.00    +0.000 A 
ATOM     17 BR   UNL     1      21.475   8.989  49.255  0.00  0.00    +0.000 Br
ATOM     18  C   UNL     1      23.658   7.549  50.374  0.00  0.00    +0.000 A 
ATOM     19  N   UNL     1      24.314   6.578  51.051  0.00  0.00    +0.000 NA
ATOM     20  C   UNL     1      23.512   5.609  51.547  0.00  0.00    +0.000 A 
ATOM     21  N   UNL     1      24.250   4.594  52.189  0.00  0.00    +0.000 N 
ATOM     22  H   UNL     1      24.443   4.602  53.154  0.00  0.00    +0.000 HD
BRANCH  14  24
ATOM     23  C   UNL     1      20.322   4.116  51.199  0.00  0.00    +0.000 C 
ATOM     24  O   UNL     1      21.370   4.629  52.019  0.00  0.00    +0.000 OA
ENDBRANCH  14  24
ENDBRANCH   1  21
TORSDOF 3
ENDMDL
MODEL 5
REMARK VINA RESULT:    -7.464      1.110      1.541
REMARK INTER + INTRA:          -9.071
REMARK INTER:                  -8.735
REMARK INTRA:                  -0.336
REMARK UNBOUND:                -0.298
REMARK  Name = 
REMARK  4 active torsions:
REMARK  status: ('A' for Active; 'I' for Inactive)
REMARK    1  A    between atoms: C_1  and  O_2
REMARK    2  A    between atoms: O_2  and  C_3
REMARK    3  A    between atoms: N_10  and  S_11
REMARK    4  A    between atoms: S_11  and  C_14
REMARK                            x       y       z     vdW  Elec       q    Type
REMARK                         _______ _______ _______ _____ _____    ______ ____
ROOT
ATOM      1  S   UNL     1      21.428   2.302  51.252  0.00  0.00    +0.000 S 
ATOM      2  O   UNL     1      21.960   2.876  52.475  0.00  0.00    +0.000 OA
ATOM      3  O   UNL     1      20.424   2.986  50.472  0.00  0.00    +0.000 OA
ENDROOT
BRANCH   1   4
ATOM      4  C   UNL     1      20.880   0.636  51.617  0.00  0.00    +0.000 A 
ATOM      5  C   UNL     1      19.535   0.405  51.300  0.00  0.00    +0.000 A 
ATOM      6  C   UNL     1      18.751  -0.300  52.196  0.00  0.00    +0.000 A 
ATOM      7  C   UNL     1      19.321  -0.796  53.368  0.00  0.00    +0.000 A 
ATOM      8  C   UNL     1      20.707  -0.727  53.590  0.00  0.00    +0.000 A 
ATOM      9  C   UNL     1      21.274  -1.296  54.742  0.00  0.00    +0.000 A 
ATOM     10  C   UNL     1      22.655  -1.305  54.941  0.00  0.00    +0.000 A 
ATOM     11  C   UNL     1      23.489  -0.735  53.990  0.00  0.00    +0.000 A 
ATOM     12  C   UNL     1      22.938  -0.100  52.876  0.00  0.00    +0.000 A 
ATOM     13  C   UNL     1      21.535  -0.055  52.669  0.00  0.00    +0.000 A 
ENDBRANCH   1   4
BRANCH   1  21
ATOM     14  C   UNL     1      24.787   3.168  50.729  0.00  0.00    +0.000 A 
ATOM     15  N   UNL     1      25.605   4.216  50.461  0.00  0.00    +0.000 NA
ATOM     16  C   UNL     1      25.212   5.012  49.440  0.00  0.00    +0.000 A 
ATOM     17 BR   UNL     1      26.277   6.514  49.005  0.00  0.00    +0.000 Br
ATOM     18  C   UNL     1      24.063   4.755  48.697  0.00  0.00    +0.000 A 
ATOM     19  N   UNL     1      23.246   3.702  48.932  0.00  0.00    +0.000 NA
ATOM     20  C   UNL     1      23.628   2.926  49.972  0.00  0.00    +0.000 A 
ATOM     21  N   UNL     1      22.712   1.881  50.211  0.00  0.00    +0.000 N 
ATOM     22  H   UNL     1      22.806   0.986  49.813  0.00  0.00    +0.000 HD
BRANCH  14  24
ATOM     23  C   UNL     1      26.351   1.567  51.435  0.00  0.00    +0.000 C 
ATOM     24  O   UNL     1      25.142   2.270  51.717  0.00  0.00    +0.000 OA
ENDBRANCH  14  24
ENDBRANCH   1  21
TORSDOF 3
ENDMDL
MODEL 6
REMARK VINA RESULT:    -7.434      2.904      3.919
REMARK INTER + INTRA:          -9.036
REMARK INTER:                  -8.258
REMARK INTRA:                  -0.777
REMARK UNBOUND:                -0.298
REMARK  Name = 
REMARK  4 active torsions:
REMARK  status: ('A' for Active; 'I' for Inactive)
REMARK    1  A    between atoms: C_1  and  O_2
REMARK    2  A    between atoms: O_2  and  C_3
REMARK    3  A    between atoms: N_10  and  S_11
REMARK    4  A    between atoms: S_11  and  C_14
REMARK                            x       y       z     vdW  Elec       q    Type
REMARK                         _______ _______ _______ _____ _____    ______ ____
ROOT
ATOM      1  S   UNL     1      23.403   2.993  51.876  0.00  0.00    +0.000 S 
ATOM      2  O   UNL     1      23.816   3.274  50.514  0.00  0.00    +0.000 OA
ATOM      3  O   UNL     1      24.034   3.636  53.005  0.00  0.00    +0.000 OA
ENDROOT
BRANCH   1   4
ATOM      4  C   UNL     1      23.424   1.216  52.104  0.00  0.00    +0.000 A 
ATOM      5  C   UNL     1      22.186   0.685  52.491  0.00  0.00    +0.000 A 
ATOM      6  C   UNL     1      22.156  -0.274  53.487  0.00  0.00    +0.000 A 
ATOM      7  C   UNL     1      23.350  -0.718  54.054  0.00  0.00    +0.000 A 
ATOM      8  C   UNL     1      24.595  -0.323  53.533  0.00  0.00    +0.000 A 
ATOM      9  C   UNL     1      25.787  -0.836  54.068  0.00  0.00    +0.000 A 
ATOM     10  C   UNL     1      27.027  -0.516  53.513  0.00  0.00    +0.000 A 
ATOM     11  C   UNL     1      27.090   0.332  52.417  0.00  0.00    +0.000 A 
ATOM     12  C   UNL     1      25.921   0.908  51.918  0.00  0.00    +0.000 A 
ATOM     13  C   UNL     1      24.652   0.618  52.485  0.00  0.00    +0.000 A 
ENDBRANCH   1   4
BRANCH   1  21
ATOM     14  C   UNL     1      20.600   3.299  49.790  0.00  0.00    +0.000 A 
ATOM     15  N   UNL     1      20.081   4.037  48.777  0.00  0.00    +0.000 NA
ATOM     16  C   UNL     1      20.134   5.378  48.950  0.00  0.00    +0.000 A 
ATOM     17 BR   UNL     1      19.454   6.492  47.579  0.00  0.00    +0.000 Br
ATOM     18  C   UNL     1      20.657   5.959  50.102  0.00  0.00    +0.000 A 
ATOM     19  N   UNL     1      21.158   5.242  51.133  0.00  0.00    +0.000 NA
ATOM     20  C   UNL     1      21.130   3.903  50.943  0.00  0.00    +0.000 A 
ATOM     21  N   UNL     1      21.717   3.207  52.019  0.00  0.00    +0.000 N 
ATOM     22  H   UNL     1      21.199   2.873  52.787  0.00  0.00    +0.000 HD
BRANCH  14  24
ATOM     23  C   UNL     1      21.418   1.359  48.752  0.00  0.00    +0.000 C 
ATOM     24  O   UNL     1      20.536   1.921  49.723  0.00  0.00    +0.000 OA
ENDBRANCH  14  24
ENDBRANCH   1  21
TORSDOF 3
ENDMDL
MODEL 7
REMARK VINA RESULT:    -7.434      2.840      4.041
REMARK INTER + INTRA:          -9.035
REMARK INTER:                  -8.428
REMARK INTRA:                  -0.607
REMARK UNBOUND:                -0.298
REMARK  Name = 
REMARK  4 active torsions:
REMARK  status: ('A' for Active; 'I' for Inactive)
REMARK    1  A    between atoms: C_1  and  O_2
REMARK    2  A    between atoms: O_2  and  C_3
REMARK    3  A    between atoms: N_10  and  S_11
REMARK    4  A    between atoms: S_11  and  C_14
REMARK                            x       y       z     vdW  Elec       q    Type
REMARK                         _______ _______ _______ _____ _____    ______ ____
ROOT
ATOM      1  S   UNL     1      24.242   3.082  52.382  0.00  0.00    +0.000 S 
ATOM      2  O   UNL     1      24.811   3.655  51.176  0.00  0.00    +0.000 OA
ATOM      3  O   UNL     1      24.345   3.751  53.657  0.00  0.00    +0.000 OA
ENDROOT
BRANCH   1   4
ATOM      4  C   UNL     1      24.842   1.401  52.531  0.00  0.00    +0.000 A 
ATOM      5  C   UNL     1      23.823   0.453  52.696  0.00  0.00    +0.000 A 
ATOM      6  C   UNL     1      23.993  -0.551  53.632  0.00  0.00    +0.000 A 
ATOM      7  C   UNL     1      25.183  -0.623  54.357  0.00  0.00    +0.000 A 
ATOM      8  C   UNL     1      26.273   0.212  54.054  0.00  0.00    +0.000 A 
ATOM      9  C   UNL     1      27.487   0.077  54.745  0.00  0.00    +0.000 A 
ATOM     10  C   UNL     1      28.603   0.844  54.403  0.00  0.00    +0.000 A 
ATOM     11  C   UNL     1      28.514   1.764  53.369  0.00  0.00    +0.000 A 
ATOM     12  C   UNL     1      27.294   1.962  52.721  0.00  0.00    +0.000 A 
ATOM     13  C   UNL     1      26.140   1.213  53.071  0.00  0.00    +0.000 A 
ENDBRANCH   1   4
BRANCH   1  21
ATOM     14  C   UNL     1      21.919   3.132  49.754  0.00  0.00    +0.000 A 
ATOM     15  N   UNL     1      21.336   3.948  48.840  0.00  0.00    +0.000 NA
ATOM     16  C   UNL     1      20.849   5.112  49.330  0.00  0.00    +0.000 A 
ATOM     17 BR   UNL     1      20.038   6.327  48.127  0.00  0.00    +0.000 Br
ATOM     18  C   UNL     1      20.916   5.436  50.682  0.00  0.00    +0.000 A 
ATOM     19  N   UNL     1      21.472   4.627  51.613  0.00  0.00    +0.000 NA
ATOM     20  C   UNL     1      21.982   3.477  51.115  0.00  0.00    +0.000 A 
ATOM     21  N   UNL     1      22.601   2.700  52.115  0.00  0.00    +0.000 N 
ATOM     22  H   UNL     1      22.127   1.998  52.616  0.00  0.00    +0.000 HD
BRANCH  14  24
ATOM     23  C   UNL     1      21.360   0.922  49.197  0.00  0.00    +0.000 C 
ATOM     24  O   UNL     1      22.390   1.897  49.352  0.00  0.00    +0.000 OA
ENDBRANCH  14  24
ENDBRANCH   1  21
TORSDOF 3
ENDMDL
MODEL 8
REMARK VINA RESULT:    -7.424      3.707      5.223
REMARK INTER + INTRA:          -9.024
REMARK INTER:                  -8.523
REMARK INTRA:                  -0.502
REMARK UNBOUND:                -0.298
REMARK  Name = 
REMARK  4 active torsions:
REMARK  status: ('A' for Active; 'I' for Inactive)
REMARK    1  A    between atoms: C_1  and  O_2
REMARK    2  A    between atoms: O_2  and  C_3
REMARK    3  A    between atoms: N_10  and  S_11
REMARK    4  A    between atoms: S_11  and  C_14
REMARK                            x       y       z     vdW  Elec       q    Type
REMARK                         _______ _______ _______ _____ _____    ______ ____
ROOT
ATOM      1  S   UNL     1      22.437   1.474  52.042  0.00  0.00    +0.000 S 
ATOM      2  O   UNL     1      22.160   1.167  50.651  0.00  0.00    +0.000 OA
ATOM      3  O   UNL     1      23.253   2.605  52.417  0.00  0.00    +0.000 OA
ENDROOT
BRANCH   1   4
ATOM      4  C   UNL     1      23.065  -0.011  52.822  0.00  0.00    +0.000 A 
ATOM      5  C   UNL     1      22.096  -0.720  53.543  0.00  0.00    +0.000 A 
ATOM      6  C   UNL     1      22.429  -1.225  54.787  0.00  0.00    +0.000 A 
ATOM      7  C   UNL     1      23.724  -1.055  55.276  0.00  0.00    +0.000 A 
ATOM      8  C   UNL     1      24.741  -0.512  54.471  0.00  0.00    +0.000 A 
ATOM      9  C   UNL     1      26.056  -0.415  54.954  0.00  0.00    +0.000 A 
ATOM     10  C   UNL     1      27.093   0.049  54.142  0.00  0.00    +0.000 A 
ATOM     11  C   UNL     1      26.823   0.430  52.836  0.00  0.00    +0.000 A 
ATOM     12  C   UNL     1      25.510   0.409  52.364  0.00  0.00    +0.000 A 
ATOM     13  C   UNL     1      24.437  -0.033  53.182  0.00  0.00    +0.000 A 
ENDBRANCH   1   4
BRANCH   1  21
ATOM     14  C   UNL     1      18.995   1.150  51.445  0.00  0.00    +0.000 A 
ATOM     15  N   UNL     1      17.976   1.640  50.696  0.00  0.00    +0.000 NA
ATOM     16  C   UNL     1      17.885   2.990  50.654  0.00  0.00    +0.000 A 
ATOM     17 BR   UNL     1      16.508   3.769  49.616  0.00  0.00    +0.000 Br
ATOM     18  C   UNL     1      18.758   3.817  51.355  0.00  0.00    +0.000 A 
ATOM     19  N   UNL     1      19.766   3.348  52.126  0.00  0.00    +0.000 NA
ATOM     20  C   UNL     1      19.871   2.000  52.143  0.00  0.00    +0.000 A 
ATOM     21  N   UNL     1      20.972   1.568  52.910  0.00  0.00    +0.000 N 
ATOM     22  H   UNL     1      20.901   1.340  53.865  0.00  0.00    +0.000 HD
BRANCH  14  24
ATOM     23  C   UNL     1      18.200  -0.779  52.519  0.00  0.00    +0.000 C 
ATOM     24  O   UNL     1      19.128  -0.217  51.592  0.00  0.00    +0.000 OA
ENDBRANCH  14  24
ENDBRANCH   1  21
TORSDOF 3
ENDMDL
MODEL 9
REMARK VINA RESULT:    -7.419      1.631      2.213
REMARK INTER + INTRA:          -9.018
REMARK INTER:                  -8.688
REMARK INTRA:                  -0.329
REMARK UNBOUND:                -0.298
REMARK  Name = 
REMARK  4 active torsions:
REMARK  status: ('A' for Active; 'I' for Inactive)
REMARK    1  A    between atoms: C_1  and  O_2
REMARK    2  A    between atoms: O_2  and  C_3
REMARK    3  A    between atoms: N_10  and  S_11
REMARK    4  A    between atoms: S_11  and  C_14
REMARK                            x       y       z     vdW  Elec       q    Type
REMARK                         _______ _______ _______ _____ _____    ______ ____
ROOT
ATOM      1  S   UNL     1      22.947   3.108  52.148  0.00  0.00    +0.000 S 
ATOM      2  O   UNL     1      24.034   3.675  52.925  0.00  0.00    +0.000 OA
ATOM      3  O   UNL     1      21.579   3.523  52.349  0.00  0.00    +0.000 OA
ENDROOT
BRANCH   1   4
ATOM      4  C   UNL     1      23.061   1.324  52.260  0.00  0.00    +0.000 A 
ATOM      5  C   UNL     1      21.882   0.713  52.708  0.00  0.00    +0.000 A 
ATOM      6  C   UNL     1      21.973  -0.305  53.640  0.00  0.00    +0.000 A 
ATOM      7  C   UNL     1      23.227  -0.726  54.082  0.00  0.00    +0.000 A 
ATOM      8  C   UNL     1      24.408  -0.242  53.491  0.00  0.00    +0.000 A 
ATOM      9  C   UNL     1      25.660  -0.730  53.898  0.00  0.00    +0.000 A 
ATOM     10  C   UNL     1      26.836  -0.319  53.269  0.00  0.00    +0.000 A 
ATOM     11  C   UNL     1      26.774   0.595  52.227  0.00  0.00    +0.000 A 
ATOM     12  C   UNL     1      25.545   1.145  51.860  0.00  0.00    +0.000 A 
ATOM     13  C   UNL     1      24.340   0.762  52.505  0.00  0.00    +0.000 A 
ENDBRANCH   1   4
BRANCH   1  21
ATOM     14  C   UNL     1      24.980   5.032  50.034  0.00  0.00    +0.000 A 
ATOM     15  N   UNL     1      25.250   6.308  49.659  0.00  0.00    +0.000 NA
ATOM     16  C   UNL     1      24.169   7.063  49.354  0.00  0.00    +0.000 A 
ATOM     17 BR   UNL     1      24.443   8.864  48.842  0.00  0.00    +0.000 Br
ATOM     18  C   UNL     1      22.872   6.558  49.394  0.00  0.00    +0.000 A 
ATOM     19  N   UNL     1      22.583   5.283  49.742  0.00  0.00    +0.000 NA
ATOM     20  C   UNL     1      23.664   4.540  50.073  0.00  0.00    +0.000 A 
ATOM     21  N   UNL     1      23.302   3.241  50.485  0.00  0.00    +0.000 N 
ATOM     22  H   UNL     1      23.258   2.476  49.866  0.00  0.00    +0.000 HD
BRANCH  14  24
ATOM     23  C   UNL     1      26.956   4.055  49.230  0.00  0.00    +0.000 C 
ATOM     24  O   UNL     1      26.026   4.173  50.306  0.00  0.00    +0.000 OA
ENDBRANCH  14  24
ENDBRANCH   1  21
TORSDOF 3
ENDMDL
