MODEL 1
REMARK VINA RESULT:    -7.655      0.000      0.000
REMARK INTER + INTRA:         -12.375
REMARK INTER:                 -10.564
REMARK INTRA:                  -1.811
REMARK UNBOUND:                -1.811
REMARK  Name = 
REMARK  11 active torsions:
REMARK  status: ('A' for Active; 'I' for Inactive)
REMARK    1  A    between atoms: C_1  and  C_2
REMARK    2  A    between atoms: C_2  and  C_3
REMARK    3  A    between atoms: C_2  and  N_4
REMARK    4  A    between atoms: N_4  and  C_5
REMARK    5  A    between atoms: N_4  and  C_26
REMARK    6  A    between atoms: C_5  and  C_6
REMARK    7  A    between atoms: C_6  and  N_7
REMARK    8  A    between atoms: N_7  and  C_8
REMARK    9  A    between atoms: C_18  and  O_19
REMARK   10  A    between atoms: C_26  and  C_27
REMARK   11  A    between atoms: C_26  and  C_28
REMARK                            x       y       z     vdW  Elec       q    Type
REMARK                         _______ _______ _______ _____ _____    ______ ____
ROOT
ATOM      1  C   UNL     1      26.032   2.092  51.588  0.00  0.00    +0.000 A 
ATOM      2  C   UNL     1      27.293   2.291  52.162  0.00  0.00    +0.000 A 
ATOM      3  C   UNL     1      27.683   1.671  53.398  0.00  0.00    +0.000 A 
ATOM      4  C   UNL     1      26.777   0.808  54.033  0.00  0.00    +0.000 A 
ATOM      5  N   UNL     1      26.834   0.031  55.168  0.00  0.00    +0.000 NA
ATOM      6  C   UNL     1      25.644  -0.560  55.265  0.00  0.00    +0.000 A 
ATOM      7  N   UNL     1      24.828  -0.193  54.224  0.00  0.00    +0.000 N 
ATOM      8  C   UNL     1      23.477  -0.443  53.926  0.00  0.00    +0.000 A 
ATOM      9  C   UNL     1      22.731  -1.465  54.491  0.00  0.00    +0.000 A 
ATOM     10  C   UNL     1      21.348  -1.369  54.316  0.00  0.00    +0.000 A 
ATOM     11  C   UNL     1      20.811  -0.132  53.982  0.00  0.00    +0.000 A 
ATOM     12  C   UNL     1      21.493   0.634  53.062  0.00  0.00    +0.000 A 
ATOM     13  C   UNL     1      22.864   0.433  53.011  0.00  0.00    +0.000 A 
ATOM     14  C   UNL     1      23.680   1.176  52.034  0.00  0.00    +0.000 A 
ATOM     15  O   UNL     1      23.171   1.563  50.974  0.00  0.00    +0.000 OA
ATOM     16  C   UNL     1      25.110   1.348  52.337  0.00  0.00    +0.000 A 
ATOM     17  C   UNL     1      25.525   0.685  53.463  0.00  0.00    +0.000 A 
ENDROOT
BRANCH   1  18
ATOM     18  N   UNL     1      25.610   2.609  50.387  0.00  0.00    +0.000 N 
ATOM     19  H   UNL     1      25.067   1.995  49.842  0.00  0.00    +0.000 HD
BRANCH  18  20
ATOM     20  C   UNL     1      25.833   3.910  49.796  0.00  0.00    +0.000 C 
BRANCH  20  21
ATOM     21  C   UNL     1      24.730   4.956  50.092  0.00  0.00    +0.000 C 
BRANCH  21  22
ATOM     22  N   UNL     1      23.303   4.618  50.301  0.00  0.00    +0.000 N 
ATOM     23  H   UNL     1      23.414   3.610  50.414  0.00  0.00    +0.000 HD
BRANCH  22  25
ATOM     24  C   UNL     1      22.439   6.048  48.335  0.00  0.00    +0.000 C 
ATOM     25  C   UNL     1      22.401   4.738  49.127  0.00  0.00    +0.000 C 
ATOM     26  C   UNL     1      22.531   3.548  48.168  0.00  0.00    +0.000 C 
ENDBRANCH  22  25
BRANCH  22  27
ATOM     27  C   UNL     1      22.680   5.029  51.581  0.00  0.00    +0.000 C 
ATOM     28  C   UNL     1      21.308   4.338  51.785  0.00  0.00    +0.000 C 
ATOM     29  C   UNL     1      23.465   4.714  52.870  0.00  0.00    +0.000 C 
ENDBRANCH  22  27
ENDBRANCH  21  22
ENDBRANCH  20  21
ENDBRANCH  18  20
ENDBRANCH   1  18
BRANCH  11  30
ATOM     30  O   UNL     1      20.387   0.632  55.079  0.00  0.00    +0.000 OA
ATOM     31  H   UNL     1      20.935   1.313  55.415  0.00  0.00    +0.000 HD
ENDBRANCH  11  30
TORSDOF 7
ENDMDL
MODEL 2
REMARK VINA RESULT:    -7.651      1.026      1.975
REMARK INTER + INTRA:         -12.369
REMARK INTER:                 -11.100
REMARK INTRA:                  -1.269
REMARK UNBOUND:                -1.811
REMARK  Name = 
REMARK  11 active torsions:
REMARK  status: ('A' for Active; 'I' for Inactive)
REMARK    1  A    between atoms: C_1  and  C_2
REMARK    2  A    between atoms: C_2  and  C_3
REMARK    3  A    between atoms: C_2  and  N_4
REMARK    4  A    between atoms: N_4  and  C_5
REMARK    5  A    between atoms: N_4  and  C_26
REMARK    6  A    between atoms: C_5  and  C_6
REMARK    7  A    between atoms: C_6  and  N_7
REMARK    8  A    between atoms: N_7  and  C_8
REMARK    9  A    between atoms: C_18  and  O_19
REMARK   10  A    between atoms: C_26  and  C_27
REMARK   11  A    between atoms: C_26  and  C_28
REMARK                            x       y       z     vdW  Elec       q    Type
REMARK                         _______ _______ _______ _____ _____    ______ ____
ROOT
ATOM      1  C   UNL     1      25.981   2.116  51.570  0.00  0.00    +0.000 A 
ATOM      2  C   UNL     1      27.239   2.348  52.139  0.00  0.00    +0.000 A 
ATOM      3  C   UNL     1      27.652   1.734  53.371  0.00  0.00    +0.000 A 
ATOM      4  C   UNL     1      26.774   0.843  54.006  0.00  0.00    +0.000 A 
ATOM      5  N   UNL     1      26.859   0.063  55.137  0.00  0.00    +0.000 NA
ATOM      6  C   UNL     1      25.687  -0.562  55.238  0.00  0.00    +0.000 A 
ATOM      7  N   UNL     1      24.855  -0.213  54.202  0.00  0.00    +0.000 N 
ATOM      8  C   UNL     1      23.510  -0.500  53.910  0.00  0.00    +0.000 A 
ATOM      9  C   UNL     1      22.796  -1.544  54.473  0.00  0.00    +0.000 A 
ATOM     10  C   UNL     1      21.411  -1.487  54.306  0.00  0.00    +0.000 A 
ATOM     11  C   UNL     1      20.837  -0.264  53.980  0.00  0.00    +0.000 A 
ATOM     12  C   UNL     1      21.493   0.524  53.061  0.00  0.00    +0.000 A 
ATOM     13  C   UNL     1      22.868   0.362  53.001  0.00  0.00    +0.000 A 
ATOM     14  C   UNL     1      23.658   1.132  52.024  0.00  0.00    +0.000 A 
ATOM     15  O   UNL     1      23.133   1.509  50.968  0.00  0.00    +0.000 OA
ATOM     16  C   UNL     1      25.084   1.343  52.320  0.00  0.00    +0.000 A 
ATOM     17  C   UNL     1      25.524   0.687  53.442  0.00  0.00    +0.000 A 
ENDROOT
BRANCH   1  18
ATOM     18  N   UNL     1      25.538   2.626  50.374  0.00  0.00    +0.000 N 
ATOM     19  H   UNL     1      24.843   2.091  49.929  0.00  0.00    +0.000 HD
BRANCH  18  20
ATOM     20  C   UNL     1      25.929   3.824  49.664  0.00  0.00    +0.000 C 
BRANCH  20  21
ATOM     21  C   UNL     1      24.883   4.967  49.694  0.00  0.00    +0.000 C 
BRANCH  21  22
ATOM     22  N   UNL     1      24.576   5.776  50.895  0.00  0.00    +0.000 N 
ATOM     23  H   UNL     1      25.308   5.408  51.502  0.00  0.00    +0.000 HD
BRANCH  22  25
ATOM     24  C   UNL     1      22.196   4.781  50.839  0.00  0.00    +0.000 C 
ATOM     25  C   UNL     1      23.324   5.453  51.627  0.00  0.00    +0.000 C 
ATOM     26  C   UNL     1      23.590   4.673  52.921  0.00  0.00    +0.000 C 
ENDBRANCH  22  25
BRANCH  22  27
ATOM     27  C   UNL     1      24.884   7.225  50.845  0.00  0.00    +0.000 C 
ATOM     28  C   UNL     1      26.086   7.510  49.910  0.00  0.00    +0.000 C 
ATOM     29  C   UNL     1      23.769   8.157  50.332  0.00  0.00    +0.000 C 
ENDBRANCH  22  27
ENDBRANCH  21  22
ENDBRANCH  20  21
ENDBRANCH  18  20
ENDBRANCH   1  18
BRANCH  11  30
ATOM     30  O   UNL     1      20.397   0.484  55.083  0.00  0.00    +0.000 OA
ATOM     31  H   UNL     1      20.078   0.047  55.847  0.00  0.00    +0.000 HD
ENDBRANCH  11  30
TORSDOF 7
ENDMDL
MODEL 3
REMARK VINA RESULT:    -7.362      1.934      4.316
REMARK INTER + INTRA:         -11.970
REMARK INTER:                 -10.833
REMARK INTRA:                  -1.137
REMARK UNBOUND:                -1.811
REMARK  Name = 
REMARK  11 active torsions:
REMARK  status: ('A' for Active; 'I' for Inactive)
REMARK    1  A    between atoms: C_1  and  C_2
REMARK    2  A    between atoms: C_2  and  C_3
REMARK    3  A    between atoms: C_2  and  N_4
REMARK    4  A    between atoms: N_4  and  C_5
REMARK    5  A    between atoms: N_4  and  C_26
REMARK    6  A    between atoms: C_5  and  C_6
REMARK    7  A    between atoms: C_6  and  N_7
REMARK    8  A    between atoms: N_7  and  C_8
REMARK    9  A    between atoms: C_18  and  O_19
REMARK   10  A    between atoms: C_26  and  C_27
REMARK   11  A    between atoms: C_26  and  C_28
REMARK                            x       y       z     vdW  Elec       q    Type
REMARK                         _______ _______ _______ _____ _____    ______ ____
ROOT
ATOM      1  C   UNL     1      22.710   1.514  50.829  0.00  0.00    +0.000 A 
ATOM      2  C   UNL     1      21.429   0.952  50.891  0.00  0.00    +0.000 A 
ATOM      3  C   UNL     1      21.038   0.043  51.932  0.00  0.00    +0.000 A 
ATOM      4  C   UNL     1      21.963  -0.264  52.941  0.00  0.00    +0.000 A 
ATOM      5  N   UNL     1      21.912  -1.033  54.081  0.00  0.00    +0.000 NA
ATOM      6  C   UNL     1      23.122  -0.950  54.632  0.00  0.00    +0.000 A 
ATOM      7  N   UNL     1      23.946  -0.145  53.885  0.00  0.00    +0.000 N 
ATOM      8  C   UNL     1      25.313   0.175  53.968  0.00  0.00    +0.000 A 
ATOM      9  C   UNL     1      26.086  -0.003  55.103  0.00  0.00    +0.000 A 
ATOM     10  C   UNL     1      27.467   0.075  54.909  0.00  0.00    +0.000 A 
ATOM     11  C   UNL     1      27.962  -0.086  53.621  0.00  0.00    +0.000 A 
ATOM     12  C   UNL     1      27.270   0.514  52.592  0.00  0.00    +0.000 A 
ATOM     13  C   UNL     1      25.910   0.684  52.800  0.00  0.00    +0.000 A 
ATOM     14  C   UNL     1      25.087   1.350  51.775  0.00  0.00    +0.000 A 
ATOM     15  O   UNL     1      25.604   2.176  51.011  0.00  0.00    +0.000 OA
ATOM     16  C   UNL     1      23.645   1.057  51.768  0.00  0.00    +0.000 A 
ATOM     17  C   UNL     1      23.231   0.266  52.810  0.00  0.00    +0.000 A 
ENDROOT
BRANCH   1  18
ATOM     18  N   UNL     1      23.138   2.426  49.895  0.00  0.00    +0.000 N 
ATOM     19  H   UNL     1      24.113   2.451  49.759  0.00  0.00    +0.000 HD
BRANCH  18  20
ATOM     20  C   UNL     1      22.388   3.355  49.079  0.00  0.00    +0.000 C 
BRANCH  20  21
ATOM     21  C   UNL     1      23.041   4.751  48.918  0.00  0.00    +0.000 C 
BRANCH  21  22
ATOM     22  N   UNL     1      24.019   5.322  49.871  0.00  0.00    +0.000 N 
ATOM     23  H   UNL     1      24.402   4.444  50.220  0.00  0.00    +0.000 HD
BRANCH  22  25
ATOM     24  C   UNL     1      22.117   6.669  50.976  0.00  0.00    +0.000 C 
ATOM     25  C   UNL     1      23.476   5.973  51.090  0.00  0.00    +0.000 C 
ATOM     26  C   UNL     1      23.478   5.033  52.302  0.00  0.00    +0.000 C 
ENDBRANCH  22  25
BRANCH  22  27
ATOM     27  C   UNL     1      25.210   6.002  49.307  0.00  0.00    +0.000 C 
ATOM     28  C   UNL     1      25.685   7.155  50.226  0.00  0.00    +0.000 C 
ATOM     29  C   UNL     1      26.468   5.138  49.092  0.00  0.00    +0.000 C 
ENDBRANCH  22  27
ENDBRANCH  21  22
ENDBRANCH  20  21
ENDBRANCH  18  20
ENDBRANCH   1  18
BRANCH  11  30
ATOM     30  O   UNL     1      28.330  -1.401  53.300  0.00  0.00    +0.000 OA
ATOM     31  H   UNL     1      27.698  -1.989  52.937  0.00  0.00    +0.000 HD
ENDBRANCH  11  30
TORSDOF 7
ENDMDL
MODEL 4
REMARK VINA RESULT:    -7.195      3.223      8.340
REMARK INTER + INTRA:         -11.740
REMARK INTER:                 -11.068
REMARK INTRA:                  -0.672
REMARK UNBOUND:                -1.811
REMARK  Name = 
REMARK  11 active torsions:
REMARK  status: ('A' for Active; 'I' for Inactive)
REMARK    1  A    between atoms: C_1  and  C_2
REMARK    2  A    between atoms: C_2  and  C_3
REMARK    3  A    between atoms: C_2  and  N_4
REMARK    4  A    between atoms: N_4  and  C_5
REMARK    5  A    between atoms: N_4  and  C_26
REMARK    6  A    between atoms: C_5  and  C_6
REMARK    7  A    between atoms: C_6  and  N_7
REMARK    8  A    between atoms: N_7  and  C_8
REMARK    9  A    between atoms: C_18  and  O_19
REMARK   10  A    between atoms: C_26  and  C_27
REMARK   11  A    between atoms: C_26  and  C_28
REMARK                            x       y       z     vdW  Elec       q    Type
REMARK                         _______ _______ _______ _____ _____    ______ ____
ROOT
ATOM      1  C   UNL     1      24.408   4.105  50.684  0.00  0.00    +0.000 A 
ATOM      2  C   UNL     1      23.365   4.656  51.438  0.00  0.00    +0.000 A 
ATOM      3  C   UNL     1      23.039   6.055  51.394  0.00  0.00    +0.000 A 
ATOM      4  C   UNL     1      23.773   6.890  50.536  0.00  0.00    +0.000 A 
ATOM      5  N   UNL     1      23.702   8.226  50.215  0.00  0.00    +0.000 NA
ATOM      6  C   UNL     1      24.686   8.444  49.343  0.00  0.00    +0.000 A 
ATOM      7  N   UNL     1      25.380   7.288  49.090  0.00  0.00    +0.000 N 
ATOM      8  C   UNL     1      26.542   7.005  48.349  0.00  0.00    +0.000 A 
ATOM      9  C   UNL     1      27.069   7.841  47.378  0.00  0.00    +0.000 A 
ATOM     10  C   UNL     1      28.375   7.550  46.977  0.00  0.00    +0.000 A 
ATOM     11  C   UNL     1      29.162   6.767  47.812  0.00  0.00    +0.000 A 
ATOM     12  C   UNL     1      28.565   5.685  48.422  0.00  0.00    +0.000 A 
ATOM     13  C   UNL     1      27.204   5.801  48.654  0.00  0.00    +0.000 A 
ATOM     14  C   UNL     1      26.465   4.683  49.268  0.00  0.00    +0.000 A 
ATOM     15  O   UNL     1      26.870   3.523  49.122  0.00  0.00    +0.000 OA
ATOM     16  C   UNL     1      25.208   5.002  49.965  0.00  0.00    +0.000 A 
ATOM     17  C   UNL     1      24.827   6.316  49.855  0.00  0.00    +0.000 A 
ENDROOT
BRANCH   1  18
ATOM     18  N   UNL     1      24.743   2.773  50.638  0.00  0.00    +0.000 N 
ATOM     19  H   UNL     1      24.706   2.369  49.741  0.00  0.00    +0.000 HD
BRANCH  18  20
ATOM     20  C   UNL     1      25.141   1.869  51.694  0.00  0.00    +0.000 C 
BRANCH  20  21
ATOM     21  C   UNL     1      26.627   1.433  51.649  0.00  0.00    +0.000 C 
BRANCH  21  22
ATOM     22  N   UNL     1      27.209   0.383  52.516  0.00  0.00    +0.000 N 
ATOM     23  H   UNL     1      27.869  -0.004  51.841  0.00  0.00    +0.000 HD
BRANCH  22  25
ATOM     24  C   UNL     1      26.874  -2.175  52.545  0.00  0.00    +0.000 C 
ATOM     25  C   UNL     1      26.341  -0.773  52.854  0.00  0.00    +0.000 C 
ATOM     26  C   UNL     1      25.834  -0.718  54.301  0.00  0.00    +0.000 C 
ENDBRANCH  22  25
BRANCH  22  27
ATOM     27  C   UNL     1      28.087   0.819  53.627  0.00  0.00    +0.000 C 
ATOM     28  C   UNL     1      29.417   0.023  53.637  0.00  0.00    +0.000 C 
ATOM     29  C   UNL     1      28.524   2.297  53.631  0.00  0.00    +0.000 C 
ENDBRANCH  22  27
ENDBRANCH  21  22
ENDBRANCH  20  21
ENDBRANCH  18  20
ENDBRANCH   1  18
BRANCH  11  30
ATOM     30  O   UNL     1      29.957   7.494  48.710  0.00  0.00    +0.000 OA
ATOM     31  H   UNL     1      30.178   7.127  49.542  0.00  0.00    +0.000 HD
ENDBRANCH  11  30
TORSDOF 7
ENDMDL
MODEL 5
REMARK VINA RESULT:    -7.120      2.122      6.633
REMARK INTER + INTRA:         -11.637
REMARK INTER:                 -10.701
REMARK INTRA:                  -0.936
REMARK UNBOUND:                -1.811
REMARK  Name = 
REMARK  11 active torsions:
REMARK  status: ('A' for Active; 'I' for Inactive)
REMARK    1  A    between atoms: C_1  and  C_2
REMARK    2  A    between atoms: C_2  and  C_3
REMARK    3  A    between atoms: C_2  and  N_4
REMARK    4  A    between atoms: N_4  and  C_5
REMARK    5  A    between atoms: N_4  and  C_26
REMARK    6  A    between atoms: C_5  and  C_6
REMARK    7  A    between atoms: C_6  and  N_7
REMARK    8  A    between atoms: N_7  and  C_8
REMARK    9  A    between atoms: C_18  and  O_19
REMARK   10  A    between atoms: C_26  and  C_27
REMARK   11  A    between atoms: C_26  and  C_28
REMARK                            x       y       z     vdW  Elec       q    Type
REMARK                         _______ _______ _______ _____ _____    ______ ____
ROOT
ATOM      1  C   UNL     1      23.167  -0.029  53.569  0.00  0.00    +0.000 A 
ATOM      2  C   UNL     1      22.026  -0.243  54.352  0.00  0.00    +0.000 A 
ATOM      3  C   UNL     1      20.768   0.392  54.068  0.00  0.00    +0.000 A 
ATOM      4  C   UNL     1      20.675   1.228  52.945  0.00  0.00    +0.000 A 
ATOM      5  N   UNL     1      19.646   1.936  52.366  0.00  0.00    +0.000 NA
ATOM      6  C   UNL     1      20.180   2.562  51.318  0.00  0.00    +0.000 A 
ATOM      7  N   UNL     1      21.516   2.271  51.202  0.00  0.00    +0.000 N 
ATOM      8  C   UNL     1      22.535   2.745  50.356  0.00  0.00    +0.000 A 
ATOM      9  C   UNL     1      22.309   3.401  49.157  0.00  0.00    +0.000 A 
ATOM     10  C   UNL     1      23.413   4.064  48.616  0.00  0.00    +0.000 A 
ATOM     11  C   UNL     1      24.479   4.363  49.456  0.00  0.00    +0.000 A 
ATOM     12  C   UNL     1      24.859   3.405  50.370  0.00  0.00    +0.000 A 
ATOM     13  C   UNL     1      23.858   2.547  50.794  0.00  0.00    +0.000 A 
ATOM     14  C   UNL     1      24.171   1.463  51.743  0.00  0.00    +0.000 A 
ATOM     15  O   UNL     1      25.313   0.988  51.780  0.00  0.00    +0.000 OA
ATOM     16  C   UNL     1      23.064   0.932  52.555  0.00  0.00    +0.000 A 
ATOM     17  C   UNL     1      21.837   1.455  52.235  0.00  0.00    +0.000 A 
ENDROOT
BRANCH   1  18
ATOM     18  N   UNL     1      24.385  -0.638  53.750  0.00  0.00    +0.000 N 
ATOM     19  H   UNL     1      24.721  -1.129  52.966  0.00  0.00    +0.000 HD
BRANCH  18  20
ATOM     20  C   UNL     1      25.254  -0.674  54.906  0.00  0.00    +0.000 C 
BRANCH  20  21
ATOM     21  C   UNL     1      26.550   0.164  54.770  0.00  0.00    +0.000 C 
BRANCH  21  22
ATOM     22  N   UNL     1      27.539  -0.012  53.682  0.00  0.00    +0.000 N 
ATOM     23  H   UNL     1      26.911   0.152  52.895  0.00  0.00    +0.000 HD
BRANCH  22  25
ATOM     24  C   UNL     1      27.318  -2.237  52.396  0.00  0.00    +0.000 C 
ATOM     25  C   UNL     1      28.044  -1.388  53.443  0.00  0.00    +0.000 C 
ATOM     26  C   UNL     1      29.555  -1.416  53.178  0.00  0.00    +0.000 C 
ENDBRANCH  22  25
BRANCH  22  27
ATOM     27  C   UNL     1      28.566   1.043  53.512  0.00  0.00    +0.000 C 
ATOM     28  C   UNL     1      27.955   2.328  52.900  0.00  0.00    +0.000 C 
ATOM     29  C   UNL     1      29.286   1.528  54.786  0.00  0.00    +0.000 C 
ENDBRANCH  22  27
ENDBRANCH  21  22
ENDBRANCH  20  21
ENDBRANCH  18  20
ENDBRANCH   1  18
BRANCH  11  30
ATOM     30  O   UNL     1      24.421   5.639  50.036  0.00  0.00    +0.000 OA
ATOM     31  H   UNL     1      23.669   6.181  49.900  0.00  0.00    +0.000 HD
ENDBRANCH  11  30
TORSDOF 7
ENDMDL
MODEL 6
REMARK VINA RESULT:    -6.996      3.005      7.987
REMARK INTER + INTRA:         -11.465
REMARK INTER:                 -11.133
REMARK INTRA:                  -0.332
REMARK UNBOUND:                -1.811
REMARK  Name = 
REMARK  11 active torsions:
REMARK  status: ('A' for Active; 'I' for Inactive)
REMARK    1  A    between atoms: C_1  and  C_2
REMARK    2  A    between atoms: C_2  and  C_3
REMARK    3  A    between atoms: C_2  and  N_4
REMARK    4  A    between atoms: N_4  and  C_5
REMARK    5  A    between atoms: N_4  and  C_26
REMARK    6  A    between atoms: C_5  and  C_6
REMARK    7  A    between atoms: C_6  and  N_7
REMARK    8  A    between atoms: N_7  and  C_8
REMARK    9  A    between atoms: C_18  and  O_19
REMARK   10  A    between atoms: C_26  and  C_27
REMARK   11  A    between atoms: C_26  and  C_28
REMARK                            x       y       z     vdW  Elec       q    Type
REMARK                         _______ _______ _______ _____ _____    ______ ____
ROOT
ATOM      1  C   UNL     1      24.468   3.905  50.903  0.00  0.00    +0.000 A 
ATOM      2  C   UNL     1      23.509   4.482  51.744  0.00  0.00    +0.000 A 
ATOM      3  C   UNL     1      23.279   5.899  51.790  0.00  0.00    +0.000 A 
ATOM      4  C   UNL     1      24.019   6.730  50.935  0.00  0.00    +0.000 A 
ATOM      5  N   UNL     1      24.023   8.084  50.688  0.00  0.00    +0.000 NA
ATOM      6  C   UNL     1      24.970   8.284  49.772  0.00  0.00    +0.000 A 
ATOM      7  N   UNL     1      25.568   7.100  49.419  0.00  0.00    +0.000 N 
ATOM      8  C   UNL     1      26.666   6.783  48.598  0.00  0.00    +0.000 A 
ATOM      9  C   UNL     1      27.193   7.634  47.642  0.00  0.00    +0.000 A 
ATOM     10  C   UNL     1      28.452   7.281  47.150  0.00  0.00    +0.000 A 
ATOM     11  C   UNL     1      29.228   6.402  47.896  0.00  0.00    +0.000 A 
ATOM     12  C   UNL     1      28.593   5.331  48.484  0.00  0.00    +0.000 A 
ATOM     13  C   UNL     1      27.258   5.523  48.801  0.00  0.00    +0.000 A 
ATOM     14  C   UNL     1      26.479   4.424  49.399  0.00  0.00    +0.000 A 
ATOM     15  O   UNL     1      26.795   3.250  49.171  0.00  0.00    +0.000 OA
ATOM     16  C   UNL     1      25.288   4.787  50.185  0.00  0.00    +0.000 A 
ATOM     17  C   UNL     1      24.993   6.126  50.165  0.00  0.00    +0.000 A 
ENDROOT
BRANCH   1  18
ATOM     18  N   UNL     1      24.708   2.559  50.769  0.00  0.00    +0.000 N 
ATOM     19  H   UNL     1      24.398   2.167  49.920  0.00  0.00    +0.000 HD
BRANCH  18  20
ATOM     20  C   UNL     1      25.341   1.624  51.673  0.00  0.00    +0.000 C 
BRANCH  20  21
ATOM     21  C   UNL     1      24.652   1.488  53.053  0.00  0.00    +0.000 C 
BRANCH  21  22
ATOM     22  N   UNL     1      24.489   0.206  53.775  0.00  0.00    +0.000 N 
ATOM     23  H   UNL     1      24.251   0.590  54.689  0.00  0.00    +0.000 HD
BRANCH  22  25
ATOM     24  C   UNL     1      26.350  -1.329  52.860  0.00  0.00    +0.000 C 
ATOM     25  C   UNL     1      25.719  -0.583  54.039  0.00  0.00    +0.000 C 
ATOM     26  C   UNL     1      26.791   0.237  54.768  0.00  0.00    +0.000 C 
ENDBRANCH  22  25
BRANCH  22  27
ATOM     27  C   UNL     1      23.305  -0.622  53.445  0.00  0.00    +0.000 C 
ATOM     28  C   UNL     1      22.567  -1.084  54.727  0.00  0.00    +0.000 C 
ATOM     29  C   UNL     1      22.208   0.042  52.588  0.00  0.00    +0.000 C 
ENDBRANCH  22  27
ENDBRANCH  21  22
ENDBRANCH  20  21
ENDBRANCH  18  20
ENDBRANCH   1  18
BRANCH  11  30
ATOM     30  O   UNL     1      30.121   7.025  48.781  0.00  0.00    +0.000 OA
ATOM     31  H   UNL     1      30.361   6.599  49.579  0.00  0.00    +0.000 HD
ENDBRANCH  11  30
TORSDOF 7
ENDMDL
MODEL 7
REMARK VINA RESULT:    -6.900      2.377      4.654
REMARK INTER + INTRA:         -11.332
REMARK INTER:                  -9.736
REMARK INTRA:                  -1.597
REMARK UNBOUND:                -1.811
REMARK  Name = 
REMARK  11 active torsions:
REMARK  status: ('A' for Active; 'I' for Inactive)
REMARK    1  A    between atoms: C_1  and  C_2
REMARK    2  A    between atoms: C_2  and  C_3
REMARK    3  A    between atoms: C_2  and  N_4
REMARK    4  A    between atoms: N_4  and  C_5
REMARK    5  A    between atoms: N_4  and  C_26
REMARK    6  A    between atoms: C_5  and  C_6
REMARK    7  A    between atoms: C_6  and  N_7
REMARK    8  A    between atoms: N_7  and  C_8
REMARK    9  A    between atoms: C_18  and  O_19
REMARK   10  A    between atoms: C_26  and  C_27
REMARK   11  A    between atoms: C_26  and  C_28
REMARK                            x       y       z     vdW  Elec       q    Type
REMARK                         _______ _______ _______ _____ _____    ______ ____
ROOT
ATOM      1  C   UNL     1      22.146   3.722  51.874  0.00  0.00    +0.000 A 
ATOM      2  C   UNL     1      22.421   4.955  51.272  0.00  0.00    +0.000 A 
ATOM      3  C   UNL     1      23.710   5.271  50.719  0.00  0.00    +0.000 A 
ATOM      4  C   UNL     1      24.715   4.292  50.755  0.00  0.00    +0.000 A 
ATOM      5  N   UNL     1      26.009   4.237  50.290  0.00  0.00    +0.000 NA
ATOM      6  C   UNL     1      26.472   3.039  50.643  0.00  0.00    +0.000 A 
ATOM      7  N   UNL     1      25.513   2.321  51.313  0.00  0.00    +0.000 N 
ATOM      8  C   UNL     1      25.526   1.079  51.973  0.00  0.00    +0.000 A 
ATOM      9  C   UNL     1      26.488   0.103  51.776  0.00  0.00    +0.000 A 
ATOM     10  C   UNL     1      26.516  -0.917  52.731  0.00  0.00    +0.000 A 
ATOM     11  C   UNL     1      25.908  -0.687  53.959  0.00  0.00    +0.000 A 
ATOM     12  C   UNL     1      24.701  -0.023  53.959  0.00  0.00    +0.000 A 
ATOM     13  C   UNL     1      24.495   0.853  52.905  0.00  0.00    +0.000 A 
ATOM     14  C   UNL     1      23.221   1.584  52.793  0.00  0.00    +0.000 A 
ATOM     15  O   UNL     1      22.189   1.099  53.274  0.00  0.00    +0.000 OA
ATOM     16  C   UNL     1      23.223   2.839  52.024  0.00  0.00    +0.000 A 
ATOM     17  C   UNL     1      24.418   3.113  51.408  0.00  0.00    +0.000 A 
ENDROOT
BRANCH   1  18
ATOM     18  N   UNL     1      20.927   3.333  52.377  0.00  0.00    +0.000 N 
ATOM     19  H   UNL     1      20.951   2.996  53.301  0.00  0.00    +0.000 HD
BRANCH  18  20
ATOM     20  C   UNL     1      19.616   3.339  51.767  0.00  0.00    +0.000 C 
BRANCH  20  21
ATOM     21  C   UNL     1      19.519   2.564  50.429  0.00  0.00    +0.000 C 
BRANCH  21  22
ATOM     22  N   UNL     1      20.239   2.949  49.195  0.00  0.00    +0.000 N 
ATOM     23  H   UNL     1      20.871   3.634  49.610  0.00  0.00    +0.000 HD
BRANCH  22  25
ATOM     24  C   UNL     1      17.969   3.532  48.117  0.00  0.00    +0.000 C 
ATOM     25  C   UNL     1      19.485   3.739  48.189  0.00  0.00    +0.000 C 
ATOM     26  C   UNL     1      19.800   5.238  48.269  0.00  0.00    +0.000 C 
ENDBRANCH  22  25
BRANCH  22  27
ATOM     27  C   UNL     1      21.168   1.957  48.604  0.00  0.00    +0.000 C 
ATOM     28  C   UNL     1      22.507   2.618  48.190  0.00  0.00    +0.000 C 
ATOM     29  C   UNL     1      21.585   0.773  49.500  0.00  0.00    +0.000 C 
ENDBRANCH  22  27
ENDBRANCH  21  22
ENDBRANCH  20  21
ENDBRANCH  18  20
ENDBRANCH   1  18
BRANCH  11  30
ATOM     30  O   UNL     1      26.770  -0.195  54.950  0.00  0.00    +0.000 OA
ATOM     31  H   UNL     1      26.444   0.389  55.605  0.00  0.00    +0.000 HD
ENDBRANCH  11  30
TORSDOF 7
ENDMDL
MODEL 8
REMARK VINA RESULT:    -6.587      2.900      5.025
REMARK INTER + INTRA:         -10.900
REMARK INTER:                  -9.974
REMARK INTRA:                  -0.927
REMARK UNBOUND:                -1.811
REMARK  Name = 
REMARK  11 active torsions:
REMARK  status: ('A' for Active; 'I' for Inactive)
REMARK    1  A    between atoms: C_1  and  C_2
REMARK    2  A    between atoms: C_2  and  C_3
REMARK    3  A    between atoms: C_2  and  N_4
REMARK    4  A    between atoms: N_4  and  C_5
REMARK    5  A    between atoms: N_4  and  C_26
REMARK    6  A    between atoms: C_5  and  C_6
REMARK    7  A    between atoms: C_6  and  N_7
REMARK    8  A    between atoms: N_7  and  C_8
REMARK    9  A    between atoms: C_18  and  O_19
REMARK   10  A    between atoms: C_26  and  C_27
REMARK   11  A    between atoms: C_26  and  C_28
REMARK                            x       y       z     vdW  Elec       q    Type
REMARK                         _______ _______ _______ _____ _____    ______ ____
ROOT
ATOM      1  C   UNL     1      22.179   3.468  52.124  0.00  0.00    +0.000 A 
ATOM      2  C   UNL     1      22.368   4.710  51.507  0.00  0.00    +0.000 A 
ATOM      3  C   UNL     1      23.609   5.079  50.883  0.00  0.00    +0.000 A 
ATOM      4  C   UNL     1      24.656   4.144  50.863  0.00  0.00    +0.000 A 
ATOM      5  N   UNL     1      25.923   4.143  50.326  0.00  0.00    +0.000 NA
ATOM      6  C   UNL     1      26.456   2.966  50.653  0.00  0.00    +0.000 A 
ATOM      7  N   UNL     1      25.567   2.210  51.375  0.00  0.00    +0.000 N 
ATOM      8  C   UNL     1      25.670   0.971  52.034  0.00  0.00    +0.000 A 
ATOM      9  C   UNL     1      26.660   0.037  51.785  0.00  0.00    +0.000 A 
ATOM     10  C   UNL     1      26.784  -0.979  52.736  0.00  0.00    +0.000 A 
ATOM     11  C   UNL     1      26.236  -0.771  53.996  0.00  0.00    +0.000 A 
ATOM     12  C   UNL     1      25.004  -0.159  54.063  0.00  0.00    +0.000 A 
ATOM     13  C   UNL     1      24.703   0.704  53.022  0.00  0.00    +0.000 A 
ATOM     14  C   UNL     1      23.394   1.380  52.982  0.00  0.00    +0.000 A 
ATOM     15  O   UNL     1      22.412   0.852  53.519  0.00  0.00    +0.000 OA
ATOM     16  C   UNL     1      23.301   2.632  52.214  0.00  0.00    +0.000 A 
ATOM     17  C   UNL     1      24.446   2.955  51.532  0.00  0.00    +0.000 A 
ENDROOT
BRANCH   1  18
ATOM     18  N   UNL     1      21.009   3.029  52.693  0.00  0.00    +0.000 N 
ATOM     19  H   UNL     1      21.072   2.812  53.651  0.00  0.00    +0.000 HD
BRANCH  18  20
ATOM     20  C   UNL     1      19.698   2.834  52.113  0.00  0.00    +0.000 C 
BRANCH  20  21
ATOM     21  C   UNL     1      19.425   1.400  51.595  0.00  0.00    +0.000 C 
BRANCH  21  22
ATOM     22  N   UNL     1      19.141   1.070  50.180  0.00  0.00    +0.000 N 
ATOM     23  H   UNL     1      19.320   0.067  50.232  0.00  0.00    +0.000 HD
BRANCH  22  25
ATOM     24  C   UNL     1      20.165   3.048  48.878  0.00  0.00    +0.000 C 
ATOM     25  C   UNL     1      20.116   1.545  49.166  0.00  0.00    +0.000 C 
ATOM     26  C   UNL     1      21.533   1.021  49.431  0.00  0.00    +0.000 C 
ENDBRANCH  22  25
BRANCH  22  27
ATOM     27  C   UNL     1      17.730   1.132  49.730  0.00  0.00    +0.000 C 
ATOM     28  C   UNL     1      16.988  -0.196  50.026  0.00  0.00    +0.000 C 
ATOM     29  C   UNL     1      16.842   2.219  50.369  0.00  0.00    +0.000 C 
ENDBRANCH  22  27
ENDBRANCH  21  22
ENDBRANCH  20  21
ENDBRANCH  18  20
ENDBRANCH   1  18
BRANCH  11  30
ATOM     30  O   UNL     1      27.130  -0.241  54.937  0.00  0.00    +0.000 OA
ATOM     31  H   UNL     1      27.334  -0.724  55.713  0.00  0.00    +0.000 HD
ENDBRANCH  11  30
TORSDOF 7
ENDMDL
MODEL 9
REMARK VINA RESULT:    -6.493      2.216      4.325
REMARK INTER + INTRA:         -10.771
REMARK INTER:                  -9.973
REMARK INTRA:                  -0.799
REMARK UNBOUND:                -1.811
REMARK  Name = 
REMARK  11 active torsions:
REMARK  status: ('A' for Active; 'I' for Inactive)
REMARK    1  A    between atoms: C_1  and  C_2
REMARK    2  A    between atoms: C_2  and  C_3
REMARK    3  A    between atoms: C_2  and  N_4
REMARK    4  A    between atoms: N_4  and  C_5
REMARK    5  A    between atoms: N_4  and  C_26
REMARK    6  A    between atoms: C_5  and  C_6
REMARK    7  A    between atoms: C_6  and  N_7
REMARK    8  A    between atoms: N_7  and  C_8
REMARK    9  A    between atoms: C_18  and  O_19
REMARK   10  A    between atoms: C_26  and  C_27
REMARK   11  A    between atoms: C_26  and  C_28
REMARK                            x       y       z     vdW  Elec       q    Type
REMARK                         _______ _______ _______ _____ _____    ______ ____
ROOT
ATOM      1  C   UNL     1      22.743   1.552  50.857  0.00  0.00    +0.000 A 
ATOM      2  C   UNL     1      21.465   0.981  50.888  0.00  0.00    +0.000 A 
ATOM      3  C   UNL     1      21.069   0.034  51.894  0.00  0.00    +0.000 A 
ATOM      4  C   UNL     1      21.988  -0.301  52.901  0.00  0.00    +0.000 A 
ATOM      5  N   UNL     1      21.931  -1.109  54.013  0.00  0.00    +0.000 NA
ATOM      6  C   UNL     1      23.135  -1.037  54.578  0.00  0.00    +0.000 A 
ATOM      7  N   UNL     1      23.961  -0.202  53.866  0.00  0.00    +0.000 N 
ATOM      8  C   UNL     1      25.325   0.123  53.973  0.00  0.00    +0.000 A 
ATOM      9  C   UNL     1      26.088  -0.089  55.109  0.00  0.00    +0.000 A 
ATOM     10  C   UNL     1      27.471   0.005  54.931  0.00  0.00    +0.000 A 
ATOM     11  C   UNL     1      27.979  -0.109  53.642  0.00  0.00    +0.000 A 
ATOM     12  C   UNL     1      27.292   0.521  52.628  0.00  0.00    +0.000 A 
ATOM     13  C   UNL     1      25.929   0.676  52.829  0.00  0.00    +0.000 A 
ATOM     14  C   UNL     1      25.112   1.371  51.819  0.00  0.00    +0.000 A 
ATOM     15  O   UNL     1      25.630   2.226  51.090  0.00  0.00    +0.000 OA
ATOM     16  C   UNL     1      23.671   1.069  51.789  0.00  0.00    +0.000 A 
ATOM     17  C   UNL     1      23.253   0.241  52.799  0.00  0.00    +0.000 A 
ENDROOT
BRANCH   1  18
ATOM     18  N   UNL     1      23.173   2.499  49.959  0.00  0.00    +0.000 N 
ATOM     19  H   UNL     1      23.779   2.160  49.262  0.00  0.00    +0.000 HD
BRANCH  18  20
ATOM     20  C   UNL     1      22.879   3.912  49.872  0.00  0.00    +0.000 C 
BRANCH  20  21
ATOM     21  C   UNL     1      21.830   4.420  50.893  0.00  0.00    +0.000 C 
BRANCH  21  22
ATOM     22  N   UNL     1      20.640   5.223  50.528  0.00  0.00    +0.000 N 
ATOM     23  H   UNL     1      20.431   5.591  51.456  0.00  0.00    +0.000 HD
BRANCH  22  25
ATOM     24  C   UNL     1      19.502   3.467  49.020  0.00  0.00    +0.000 C 
ATOM     25  C   UNL     1      19.408   4.480  50.164  0.00  0.00    +0.000 C 
ATOM     26  C   UNL     1      18.741   3.826  51.381  0.00  0.00    +0.000 C 
ENDBRANCH  22  25
BRANCH  22  27
ATOM     27  C   UNL     1      20.860   6.450  49.726  0.00  0.00    +0.000 C 
ATOM     28  C   UNL     1      19.520   7.027  49.204  0.00  0.00    +0.000 C 
ATOM     29  C   UNL     1      21.537   7.637  50.440  0.00  0.00    +0.000 C 
ENDBRANCH  22  27
ENDBRANCH  21  22
ENDBRANCH  20  21
ENDBRANCH  18  20
ENDBRANCH   1  18
BRANCH  11  30
ATOM     30  O   UNL     1      28.358  -1.410  53.281  0.00  0.00    +0.000 OA
ATOM     31  H   UNL     1      28.834  -1.944  53.885  0.00  0.00    +0.000 HD
ENDBRANCH  11  30
TORSDOF 7
ENDMDL
