MODEL 1
REMARK VINA RESULT:    -9.103      0.000      0.000
REMARK INTER + INTRA:         -10.411
REMARK INTER:                 -10.434
REMARK INTRA:                   0.023
REMARK UNBOUND:                 0.023
REMARK  Name = 
REMARK  4 active torsions:
REMARK  status: ('A' for Active; 'I' for Inactive)
REMARK    1  A    between atoms: C_1  and  C_2
REMARK    2  A    between atoms: C_10  and  C_11
REMARK    3  A    between atoms: C_14  and  N_15
REMARK    4  A    between atoms: C_20  and  C_22
REMARK                            x       y       z     vdW  Elec       q    Type
REMARK                         _______ _______ _______ _____ _____    ______ ____
ROOT
ATOM      1  C   UNL     1      22.737   5.553  51.748  0.00  0.00    +0.000 C 
ATOM      2  C   UNL     1      23.660   4.330  51.768  0.00  0.00    +0.000 C 
ATOM      3  C   UNL     1      23.855   3.815  53.207  0.00  0.00    +0.000 C 
ATOM      4  C   UNL     1      24.524   2.462  53.189  0.00  0.00    +0.000 A 
ATOM      5  C   UNL     1      25.859   2.294  53.575  0.00  0.00    +0.000 A 
ATOM      6  C   UNL     1      26.418   1.041  53.414  0.00  0.00    +0.000 A 
ATOM      7  C   UNL     1      25.699  -0.025  52.924  0.00  0.00    +0.000 A 
ATOM      8  C   UNL     1      24.382   0.092  52.553  0.00  0.00    +0.000 A 
ATOM      9  C   UNL     1      23.798   1.358  52.678  0.00  0.00    +0.000 A 
ATOM     10  C   UNL     1      22.417   1.574  52.163  0.00  0.00    +0.000 C 
ATOM     11  N   UNL     1      22.123   2.473  51.264  0.00  0.00    +0.000 NA
ATOM     12  N   UNL     1      23.161   3.289  50.844  0.00  0.00    +0.000 N 
ATOM     13  C   UNL     1      23.525   3.319  49.493  0.00  0.00    +0.000 C 
ATOM     14  O   UNL     1      24.383   4.071  49.034  0.00  0.00    +0.000 OA
ATOM     15  O   UNL     1      26.450  -1.155  52.823  0.00  0.00    +0.000 OA
ATOM     16  C   UNL     1      27.751  -0.642  53.177  0.00  0.00    +0.000 C 
ATOM     17  O   UNL     1      27.715   0.712  53.674  0.00  0.00    +0.000 OA
ENDROOT
BRANCH  10  18
ATOM     18  C   UNL     1      21.343   0.677  52.683  0.00  0.00    +0.000 A 
ATOM     19  C   UNL     1      21.544  -0.074  53.845  0.00  0.00    +0.000 A 
ATOM     20  C   UNL     1      20.572  -0.980  54.268  0.00  0.00    +0.000 A 
ATOM     21  C   UNL     1      19.404  -1.169  53.527  0.00  0.00    +0.000 A 
ATOM     22  C   UNL     1      19.158  -0.328  52.435  0.00  0.00    +0.000 A 
ATOM     23  C   UNL     1      20.128   0.582  52.001  0.00  0.00    +0.000 A 
BRANCH  21  24
ATOM     24  N   UNL     1      18.402  -2.023  54.001  0.00  0.00    +0.000 N 
ATOM     25  H   UNL     1      18.570  -2.992  54.059  0.00  0.00    +0.000 HD
ATOM     26  H   UNL     1      17.531  -1.656  54.274  0.00  0.00    +0.000 HD
ENDBRANCH  21  24
ENDBRANCH  10  18
BRANCH  13  27
ATOM     27  C   UNL     1      22.856   2.319  48.596  0.00  0.00    +0.000 C 
ATOM     28  C   UNL     1      22.306   2.755  47.255  0.00  0.00    +0.000 C 
ATOM     29  C   UNL     1      21.365   2.355  48.354  0.00  0.00    +0.000 C 
ENDBRANCH  13  27
TORSDOF 3
ENDMDL
MODEL 2
REMARK VINA RESULT:    -7.869      3.765      5.481
REMARK INTER + INTRA:          -8.996
REMARK INTER:                  -9.068
REMARK INTRA:                   0.072
REMARK UNBOUND:                 0.023
REMARK  Name = 
REMARK  4 active torsions:
REMARK  status: ('A' for Active; 'I' for Inactive)
REMARK    1  A    between atoms: C_1  and  C_2
REMARK    2  A    between atoms: C_10  and  C_11
REMARK    3  A    between atoms: C_14  and  N_15
REMARK    4  A    between atoms: C_20  and  C_22
REMARK                            x       y       z     vdW  Elec       q    Type
REMARK                         _______ _______ _______ _____ _____    ______ ____
ROOT
ATOM      1  C   UNL     1      21.555   5.937  51.059  0.00  0.00    +0.000 C 
ATOM      2  C   UNL     1      22.834   5.869  50.219  0.00  0.00    +0.000 C 
ATOM      3  C   UNL     1      24.043   6.391  51.018  0.00  0.00    +0.000 C 
ATOM      4  C   UNL     1      25.326   6.060  50.296  0.00  0.00    +0.000 A 
ATOM      5  C   UNL     1      26.080   7.043  49.644  0.00  0.00    +0.000 A 
ATOM      6  C   UNL     1      27.175   6.627  48.912  0.00  0.00    +0.000 A 
ATOM      7  C   UNL     1      27.550   5.305  48.839  0.00  0.00    +0.000 A 
ATOM      8  C   UNL     1      26.851   4.313  49.482  0.00  0.00    +0.000 A 
ATOM      9  C   UNL     1      25.718   4.701  50.207  0.00  0.00    +0.000 A 
ATOM     10  C   UNL     1      24.846   3.654  50.807  0.00  0.00    +0.000 C 
ATOM     11  N   UNL     1      23.575   3.541  50.534  0.00  0.00    +0.000 NA
ATOM     12  N   UNL     1      23.036   4.501  49.693  0.00  0.00    +0.000 N 
ATOM     13  C   UNL     1      22.436   4.119  48.487  0.00  0.00    +0.000 C 
ATOM     14  O   UNL     1      21.872   4.903  47.727  0.00  0.00    +0.000 OA
ATOM     15  O   UNL     1      28.639   5.116  48.046  0.00  0.00    +0.000 OA
ATOM     16  C   UNL     1      28.821   6.449  47.524  0.00  0.00    +0.000 C 
ATOM     17  O   UNL     1      27.982   7.433  48.164  0.00  0.00    +0.000 OA
ENDROOT
BRANCH  10  18
ATOM     18  C   UNL     1      25.490   2.672  51.729  0.00  0.00    +0.000 A 
ATOM     19  C   UNL     1      26.353   1.691  51.233  0.00  0.00    +0.000 A 
ATOM     20  C   UNL     1      26.872   0.720  52.089  0.00  0.00    +0.000 A 
ATOM     21  C   UNL     1      26.517   0.699  53.440  0.00  0.00    +0.000 A 
ATOM     22  C   UNL     1      25.751   1.753  53.950  0.00  0.00    +0.000 A 
ATOM     23  C   UNL     1      25.223   2.730  53.098  0.00  0.00    +0.000 A 
BRANCH  21  24
ATOM     24  N   UNL     1      27.103  -0.232  54.305  0.00  0.00    +0.000 N 
ATOM     25  H   UNL     1      27.038  -0.107  55.279  0.00  0.00    +0.000 HD
ATOM     26  H   UNL     1      27.581  -1.011  53.939  0.00  0.00    +0.000 HD
ENDBRANCH  21  24
ENDBRANCH  10  18
BRANCH  13  27
ATOM     27  C   UNL     1      22.566   2.674  48.103  0.00  0.00    +0.000 C 
ATOM     28  C   UNL     1      21.343   1.892  47.677  0.00  0.00    +0.000 C 
ATOM     29  C   UNL     1      22.015   1.575  48.982  0.00  0.00    +0.000 C 
ENDBRANCH  13  27
TORSDOF 3
ENDMDL
MODEL 3
REMARK VINA RESULT:    -7.861      3.197      6.448
REMARK INTER + INTRA:          -8.987
REMARK INTER:                  -9.149
REMARK INTRA:                   0.162
REMARK UNBOUND:                 0.023
REMARK  Name = 
REMARK  4 active torsions:
REMARK  status: ('A' for Active; 'I' for Inactive)
REMARK    1  A    between atoms: C_1  and  C_2
REMARK    2  A    between atoms: C_10  and  C_11
REMARK    3  A    between atoms: C_14  and  N_15
REMARK    4  A    between atoms: C_20  and  C_22
REMARK                            x       y       z     vdW  Elec       q    Type
REMARK                         _______ _______ _______ _____ _____    ______ ____
ROOT
ATOM      1  C   UNL     1      20.352   4.038  46.893  0.00  0.00    +0.000 C 
ATOM      2  C   UNL     1      20.694   3.512  48.291  0.00  0.00    +0.000 C 
ATOM      3  C   UNL     1      21.645   2.303  48.204  0.00  0.00    +0.000 C 
ATOM      4  C   UNL     1      22.194   1.975  49.571  0.00  0.00    +0.000 A 
ATOM      5  C   UNL     1      21.773   0.845  50.283  0.00  0.00    +0.000 A 
ATOM      6  C   UNL     1      22.244   0.691  51.573  0.00  0.00    +0.000 A 
ATOM      7  C   UNL     1      23.120   1.584  52.145  0.00  0.00    +0.000 A 
ATOM      8  C   UNL     1      23.574   2.692  51.474  0.00  0.00    +0.000 A 
ATOM      9  C   UNL     1      23.091   2.891  50.175  0.00  0.00    +0.000 A 
ATOM     10  C   UNL     1      23.441   4.145  49.453  0.00  0.00    +0.000 C 
ATOM     11  N   UNL     1      22.548   4.976  48.990  0.00  0.00    +0.000 NA
ATOM     12  N   UNL     1      21.221   4.603  49.140  0.00  0.00    +0.000 N 
ATOM     13  C   UNL     1      20.340   5.420  49.857  0.00  0.00    +0.000 C 
ATOM     14  O   UNL     1      19.137   5.194  49.968  0.00  0.00    +0.000 OA
ATOM     15  O   UNL     1      23.433   1.255  53.428  0.00  0.00    +0.000 OA
ATOM     16  C   UNL     1      22.550   0.134  53.637  0.00  0.00    +0.000 C 
ATOM     17  O   UNL     1      21.891  -0.307  52.432  0.00  0.00    +0.000 OA
ENDROOT
BRANCH  10  18
ATOM     18  C   UNL     1      24.891   4.467  49.303  0.00  0.00    +0.000 A 
ATOM     19  C   UNL     1      25.306   5.774  49.034  0.00  0.00    +0.000 A 
ATOM     20  C   UNL     1      26.653   6.045  48.800  0.00  0.00    +0.000 A 
ATOM     21  C   UNL     1      27.598   5.017  48.805  0.00  0.00    +0.000 A 
ATOM     22  C   UNL     1      27.193   3.734  49.194  0.00  0.00    +0.000 A 
ATOM     23  C   UNL     1      25.842   3.452  49.428  0.00  0.00    +0.000 A 
BRANCH  21  24
ATOM     24  N   UNL     1      28.957   5.311  48.645  0.00  0.00    +0.000 N 
ATOM     25  H   UNL     1      29.605   4.582  48.511  0.00  0.00    +0.000 HD
ATOM     26  H   UNL     1      29.264   6.245  48.668  0.00  0.00    +0.000 HD
ENDBRANCH  21  24
ENDBRANCH  10  18
BRANCH  13  27
ATOM     27  C   UNL     1      20.946   6.594  50.570  0.00  0.00    +0.000 C 
ATOM     28  C   UNL     1      20.529   8.000  50.200  0.00  0.00    +0.000 C 
ATOM     29  C   UNL     1      21.914   7.521  49.874  0.00  0.00    +0.000 C 
ENDBRANCH  13  27
TORSDOF 3
ENDMDL
MODEL 4
REMARK VINA RESULT:    -7.584      3.260      7.635
REMARK INTER + INTRA:          -8.670
REMARK INTER:                  -8.252
REMARK INTRA:                  -0.418
REMARK UNBOUND:                 0.023
REMARK  Name = 
REMARK  4 active torsions:
REMARK  status: ('A' for Active; 'I' for Inactive)
REMARK    1  A    between atoms: C_1  and  C_2
REMARK    2  A    between atoms: C_10  and  C_11
REMARK    3  A    between atoms: C_14  and  N_15
REMARK    4  A    between atoms: C_20  and  C_22
REMARK                            x       y       z     vdW  Elec       q    Type
REMARK                         _______ _______ _______ _____ _____    ______ ____
ROOT
ATOM      1  C   UNL     1      23.845   4.914  54.059  0.00  0.00    +0.000 C 
ATOM      2  C   UNL     1      23.241   4.346  52.771  0.00  0.00    +0.000 C 
ATOM      3  C   UNL     1      22.763   5.479  51.844  0.00  0.00    +0.000 C 
ATOM      4  C   UNL     1      22.435   4.930  50.477  0.00  0.00    +0.000 A 
ATOM      5  C   UNL     1      21.115   4.804  50.029  0.00  0.00    +0.000 A 
ATOM      6  C   UNL     1      20.910   4.183  48.812  0.00  0.00    +0.000 A 
ATOM      7  C   UNL     1      21.951   3.727  48.036  0.00  0.00    +0.000 A 
ATOM      8  C   UNL     1      23.261   3.851  48.428  0.00  0.00    +0.000 A 
ATOM      9  C   UNL     1      23.498   4.450  49.671  0.00  0.00    +0.000 A 
ATOM     10  C   UNL     1      24.887   4.485  50.207  0.00  0.00    +0.000 C 
ATOM     11  N   UNL     1      25.223   3.966  51.357  0.00  0.00    +0.000 NA
ATOM     12  N   UNL     1      24.196   3.426  52.114  0.00  0.00    +0.000 N 
ATOM     13  C   UNL     1      24.231   2.076  52.481  0.00  0.00    +0.000 C 
ATOM     14  O   UNL     1      23.398   1.545  53.212  0.00  0.00    +0.000 OA
ATOM     15  O   UNL     1      21.523   3.126  46.893  0.00  0.00    +0.000 OA
ATOM     16  C   UNL     1      20.096   3.138  47.106  0.00  0.00    +0.000 C 
ATOM     17  O   UNL     1      19.695   3.916  48.253  0.00  0.00    +0.000 OA
ENDROOT
BRANCH  10  18
ATOM     18  C   UNL     1      25.937   5.111  49.349  0.00  0.00    +0.000 A 
ATOM     19  C   UNL     1      27.147   4.454  49.112  0.00  0.00    +0.000 A 
ATOM     20  C   UNL     1      28.157   5.089  48.390  0.00  0.00    +0.000 A 
ATOM     21  C   UNL     1      27.984   6.393  47.920  0.00  0.00    +0.000 A 
ATOM     22  C   UNL     1      26.727   6.996  48.058  0.00  0.00    +0.000 A 
ATOM     23  C   UNL     1      25.709   6.367  48.783  0.00  0.00    +0.000 A 
BRANCH  21  24
ATOM     24  N   UNL     1      28.973   6.992  47.132  0.00  0.00    +0.000 N 
ATOM     25  H   UNL     1      29.668   6.437  46.710  0.00  0.00    +0.000 HD
ATOM     26  H   UNL     1      28.973   7.968  47.001  0.00  0.00    +0.000 HD
ENDBRANCH  21  24
ENDBRANCH  10  18
BRANCH  13  27
ATOM     27  C   UNL     1      25.328   1.247  51.877  0.00  0.00    +0.000 C 
ATOM     28  C   UNL     1      25.809  -0.001  52.585  0.00  0.00    +0.000 C 
ATOM     29  C   UNL     1      26.706   1.199  52.494  0.00  0.00    +0.000 C 
ENDBRANCH  13  27
TORSDOF 3
ENDMDL
MODEL 5
REMARK VINA RESULT:    -7.571      2.967      5.770
REMARK INTER + INTRA:          -8.655
REMARK INTER:                  -8.590
REMARK INTRA:                  -0.065
REMARK UNBOUND:                 0.023
REMARK  Name = 
REMARK  4 active torsions:
REMARK  status: ('A' for Active; 'I' for Inactive)
REMARK    1  A    between atoms: C_1  and  C_2
REMARK    2  A    between atoms: C_10  and  C_11
REMARK    3  A    between atoms: C_14  and  N_15
REMARK    4  A    between atoms: C_20  and  C_22
REMARK                            x       y       z     vdW  Elec       q    Type
REMARK                         _______ _______ _______ _____ _____    ______ ____
ROOT
ATOM      1  C   UNL     1      22.376   3.742  47.246  0.00  0.00    +0.000 C 
ATOM      2  C   UNL     1      21.675   3.196  48.494  0.00  0.00    +0.000 C 
ATOM      3  C   UNL     1      22.010   1.707  48.703  0.00  0.00    +0.000 C 
ATOM      4  C   UNL     1      21.552   1.258  50.069  0.00  0.00    +0.000 A 
ATOM      5  C   UNL     1      20.440   0.424  50.238  0.00  0.00    +0.000 A 
ATOM      6  C   UNL     1      20.028   0.163  51.530  0.00  0.00    +0.000 A 
ATOM      7  C   UNL     1      20.690   0.664  52.627  0.00  0.00    +0.000 A 
ATOM      8  C   UNL     1      21.797   1.468  52.506  0.00  0.00    +0.000 A 
ATOM      9  C   UNL     1      22.220   1.775  51.208  0.00  0.00    +0.000 A 
ATOM     10  C   UNL     1      23.329   2.751  51.017  0.00  0.00    +0.000 C 
ATOM     11  N   UNL     1      23.206   3.842  50.312  0.00  0.00    +0.000 NA
ATOM     12  N   UNL     1      21.991   4.031  49.673  0.00  0.00    +0.000 N 
ATOM     13  C   UNL     1      21.221   5.165  49.954  0.00  0.00    +0.000 C 
ATOM     14  O   UNL     1      20.172   5.439  49.374  0.00  0.00    +0.000 OA
ATOM     15  O   UNL     1      20.100   0.305  53.799  0.00  0.00    +0.000 OA
ATOM     16  C   UNL     1      18.921  -0.365  53.308  0.00  0.00    +0.000 C 
ATOM     17  O   UNL     1      18.932  -0.570  51.880  0.00  0.00    +0.000 OA
ENDROOT
BRANCH  10  18
ATOM     18  C   UNL     1      24.620   2.466  51.711  0.00  0.00    +0.000 A 
ATOM     19  C   UNL     1      25.710   1.953  51.004  0.00  0.00    +0.000 A 
ATOM     20  C   UNL     1      26.877   1.600  51.679  0.00  0.00    +0.000 A 
ATOM     21  C   UNL     1      26.963   1.728  53.067  0.00  0.00    +0.000 A 
ATOM     22  C   UNL     1      25.914   2.354  53.750  0.00  0.00    +0.000 A 
ATOM     23  C   UNL     1      24.737   2.709  53.081  0.00  0.00    +0.000 A 
BRANCH  21  24
ATOM     24  N   UNL     1      28.165   1.443  53.725  0.00  0.00    +0.000 N 
ATOM     25  H   UNL     1      29.023   1.686  53.308  0.00  0.00    +0.000 HD
ATOM     26  H   UNL     1      28.152   0.999  54.603  0.00  0.00    +0.000 HD
ENDBRANCH  21  24
ENDBRANCH  10  18
BRANCH  13  27
ATOM     27  C   UNL     1      21.700   6.039  51.077  0.00  0.00    +0.000 C 
ATOM     28  C   UNL     1      21.637   7.545  50.942  0.00  0.00    +0.000 C 
ATOM     29  C   UNL     1      22.968   6.851  50.953  0.00  0.00    +0.000 C 
ENDBRANCH  13  27
TORSDOF 3
ENDMDL
MODEL 6
REMARK VINA RESULT:    -6.464      1.883      2.499
REMARK INTER + INTRA:          -7.386
REMARK INTER:                  -7.383
REMARK INTRA:                  -0.003
REMARK UNBOUND:                 0.023
REMARK  Name = 
REMARK  4 active torsions:
REMARK  status: ('A' for Active; 'I' for Inactive)
REMARK    1  A    between atoms: C_1  and  C_2
REMARK    2  A    between atoms: C_10  and  C_11
REMARK    3  A    between atoms: C_14  and  N_15
REMARK    4  A    between atoms: C_20  and  C_22
REMARK                            x       y       z     vdW  Elec       q    Type
REMARK                         _______ _______ _______ _____ _____    ______ ____
ROOT
ATOM      1  C   UNL     1      22.411   6.752  50.665  0.00  0.00    +0.000 C 
ATOM      2  C   UNL     1      22.960   5.347  50.931  0.00  0.00    +0.000 C 
ATOM      3  C   UNL     1      22.716   4.931  52.394  0.00  0.00    +0.000 C 
ATOM      4  C   UNL     1      23.000   3.459  52.571  0.00  0.00    +0.000 A 
ATOM      5  C   UNL     1      24.137   3.003  53.248  0.00  0.00    +0.000 A 
ATOM      6  C   UNL     1      24.371   1.642  53.257  0.00  0.00    +0.000 A 
ATOM      7  C   UNL     1      23.516   0.745  52.658  0.00  0.00    +0.000 A 
ATOM      8  C   UNL     1      22.379   1.150  52.003  0.00  0.00    +0.000 A 
ATOM      9  C   UNL     1      22.131   2.526  51.951  0.00  0.00    +0.000 A 
ATOM     10  C   UNL     1      20.989   3.028  51.137  0.00  0.00    +0.000 C 
ATOM     11  N   UNL     1      21.129   3.888  50.165  0.00  0.00    +0.000 NA
ATOM     12  N   UNL     1      22.407   4.381  49.956  0.00  0.00    +0.000 N 
ATOM     13  C   UNL     1      23.035   4.200  48.719  0.00  0.00    +0.000 C 
ATOM     14  O   UNL     1      24.134   4.673  48.434  0.00  0.00    +0.000 OA
ATOM     15  O   UNL     1      23.951  -0.539  52.764  0.00  0.00    +0.000 OA
ATOM     16  C   UNL     1      25.240  -0.332  53.379  0.00  0.00    +0.000 C 
ATOM     17  O   UNL     1      25.457   1.028  53.809  0.00  0.00    +0.000 OA
ENDROOT
BRANCH  10  18
ATOM     18  C   UNL     1      19.636   2.474  51.439  0.00  0.00    +0.000 A 
ATOM     19  C   UNL     1      19.446   1.097  51.574  0.00  0.00    +0.000 A 
ATOM     20  C   UNL     1      18.162   0.584  51.759  0.00  0.00    +0.000 A 
ATOM     21  C   UNL     1      17.054   1.433  51.786  0.00  0.00    +0.000 A 
ATOM     22  C   UNL     1      17.266   2.817  51.772  0.00  0.00    +0.000 A 
ATOM     23  C   UNL     1      18.550   3.340  51.583  0.00  0.00    +0.000 A 
BRANCH  21  24
ATOM     24  N   UNL     1      15.780   0.916  52.050  0.00  0.00    +0.000 N 
ATOM     25  H   UNL     1      15.031   1.122  51.445  0.00  0.00    +0.000 HD
ATOM     26  H   UNL     1      15.633   0.349  52.841  0.00  0.00    +0.000 HD
ENDBRANCH  21  24
ENDBRANCH  10  18
BRANCH  13  27
ATOM     27  C   UNL     1      22.326   3.318  47.731  0.00  0.00    +0.000 C 
ATOM     28  C   UNL     1      22.177   1.838  48.010  0.00  0.00    +0.000 C 
ATOM     29  C   UNL     1      23.079   2.303  46.904  0.00  0.00    +0.000 C 
ENDBRANCH  13  27
TORSDOF 3
ENDMDL
