MODEL 1
REMARK VINA RESULT:    -7.705      0.000      0.000
REMARK INTER + INTRA:         -12.468
REMARK INTER:                 -11.084
REMARK INTRA:                  -1.385
REMARK UNBOUND:                -1.385
REMARK  Name = 
REMARK  10 active torsions:
REMARK  status: ('A' for Active; 'I' for Inactive)
REMARK    1  A    between atoms: C_1  and  N_2
REMARK    2  A    between atoms: N_2  and  C_3
REMARK    3  A    between atoms: N_2  and  C_4
REMARK    4  A    between atoms: C_4  and  C_5
REMARK    5  A    between atoms: C_5  and  C_6
REMARK    6  A    between atoms: C_6  and  C_7
REMARK    7  A    between atoms: C_7  and  C_8
REMARK    8  A    between atoms: C_8  and  N_9
REMARK    9  A    between atoms: N_9  and  C_10
REMARK   10  A    between atoms: C_20  and  O_21
REMARK                            x       y       z     vdW  Elec       q    Type
REMARK                         _______ _______ _______ _____ _____    ______ ____
ROOT
ATOM      1  C   UNL     1      22.218   0.303  52.200  0.00  0.00    +0.000 A 
ATOM      2  C   UNL     1      21.290  -0.291  53.074  0.00  0.00    +0.000 A 
ATOM      3  C   UNL     1      21.652  -0.847  54.328  0.00  0.00    +0.000 A 
ATOM      4  C   UNL     1      23.028  -0.893  54.662  0.00  0.00    +0.000 A 
ATOM      5  N   UNL     1      23.707  -1.403  55.743  0.00  0.00    +0.000 NA
ATOM      6  C   UNL     1      24.977  -1.128  55.505  0.00  0.00    +0.000 A 
ATOM      7  N   UNL     1      25.143  -0.491  54.315  0.00  0.00    +0.000 N 
ATOM      8  C   UNL     1      26.271   0.087  53.679  0.00  0.00    +0.000 A 
ATOM      9  C   UNL     1      27.567  -0.141  54.065  0.00  0.00    +0.000 A 
ATOM     10  C   UNL     1      28.522   0.720  53.589  0.00  0.00    +0.000 A 
ATOM     11  C   UNL     1      28.111   1.972  53.178  0.00  0.00    +0.000 A 
ATOM     12  C   UNL     1      26.928   2.054  52.442  0.00  0.00    +0.000 A 
ATOM     13  C   UNL     1      25.999   1.052  52.686  0.00  0.00    +0.000 A 
ATOM     14  C   UNL     1      24.681   1.083  51.968  0.00  0.00    +0.000 A 
ATOM     15  O   UNL     1      24.527   1.702  50.930  0.00  0.00    +0.000 OA
ATOM     16  C   UNL     1      23.552   0.360  52.629  0.00  0.00    +0.000 A 
ATOM     17  C   UNL     1      23.904  -0.317  53.771  0.00  0.00    +0.000 A 
ENDROOT
BRANCH   1  18
ATOM     18  N   UNL     1      21.880   0.715  50.891  0.00  0.00    +0.000 N 
ATOM     19  H   UNL     1      22.588   0.837  50.217  0.00  0.00    +0.000 HD
BRANCH  18  20
ATOM     20  C   UNL     1      20.501   0.961  50.537  0.00  0.00    +0.000 C 
BRANCH  20  21
ATOM     21  C   UNL     1      20.426   1.777  49.235  0.00  0.00    +0.000 C 
BRANCH  21  22
ATOM     22  C   UNL     1      21.708   1.778  48.389  0.00  0.00    +0.000 C 
BRANCH  22  23
ATOM     23  C   UNL     1      22.492   3.098  48.359  0.00  0.00    +0.000 C 
BRANCH  23  24
ATOM     24  C   UNL     1      22.073   4.148  49.403  0.00  0.00    +0.000 C 
BRANCH  24  26
ATOM     25  C   UNL     1      23.839   5.232  50.696  0.00  0.00    +0.000 C 
ATOM     26  N   UNL     1      22.863   4.139  50.645  0.00  0.00    +0.000 N 
ATOM     27  C   UNL     1      21.971   4.240  51.807  0.00  0.00    +0.000 C 
ATOM     28  H   UNL     1      23.376   3.258  50.664  0.00  0.00    +0.000 HD
ENDBRANCH  24  26
ENDBRANCH  23  24
ENDBRANCH  22  23
ENDBRANCH  21  22
ENDBRANCH  20  21
ENDBRANCH  18  20
ENDBRANCH   1  18
BRANCH  11  29
ATOM     29  O   UNL     1      28.082   2.912  54.244  0.00  0.00    +0.000 OA
ATOM     30  H   UNL     1      28.467   2.695  55.070  0.00  0.00    +0.000 HD
ENDBRANCH  11  29
TORSDOF 8
ENDMDL
MODEL 2
REMARK VINA RESULT:    -7.676      1.083      1.678
REMARK INTER + INTRA:         -12.427
REMARK INTER:                 -11.416
REMARK INTRA:                  -1.011
REMARK UNBOUND:                -1.385
REMARK  Name = 
REMARK  10 active torsions:
REMARK  status: ('A' for Active; 'I' for Inactive)
REMARK    1  A    between atoms: C_1  and  N_2
REMARK    2  A    between atoms: N_2  and  C_3
REMARK    3  A    between atoms: N_2  and  C_4
REMARK    4  A    between atoms: C_4  and  C_5
REMARK    5  A    between atoms: C_5  and  C_6
REMARK    6  A    between atoms: C_6  and  C_7
REMARK    7  A    between atoms: C_7  and  C_8
REMARK    8  A    between atoms: C_8  and  N_9
REMARK    9  A    between atoms: N_9  and  C_10
REMARK   10  A    between atoms: C_20  and  O_21
REMARK                            x       y       z     vdW  Elec       q    Type
REMARK                         _______ _______ _______ _____ _____    ______ ____
ROOT
ATOM      1  C   UNL     1      22.342   0.627  52.116  0.00  0.00    +0.000 A 
ATOM      2  C   UNL     1      21.388   0.021  52.952  0.00  0.00    +0.000 A 
ATOM      3  C   UNL     1      21.725  -0.636  54.164  0.00  0.00    +0.000 A 
ATOM      4  C   UNL     1      23.097  -0.772  54.487  0.00  0.00    +0.000 A 
ATOM      5  N   UNL     1      23.752  -1.386  55.528  0.00  0.00    +0.000 NA
ATOM      6  C   UNL     1      25.034  -1.158  55.302  0.00  0.00    +0.000 A 
ATOM      7  N   UNL     1      25.228  -0.450  54.158  0.00  0.00    +0.000 N 
ATOM      8  C   UNL     1      26.382   0.115  53.556  0.00  0.00    +0.000 A 
ATOM      9  C   UNL     1      27.666  -0.202  53.919  0.00  0.00    +0.000 A 
ATOM     10  C   UNL     1      28.662   0.642  53.497  0.00  0.00    +0.000 A 
ATOM     11  C   UNL     1      28.311   1.938  53.174  0.00  0.00    +0.000 A 
ATOM     12  C   UNL     1      27.132   2.127  52.452  0.00  0.00    +0.000 A 
ATOM     13  C   UNL     1      26.156   1.157  52.632  0.00  0.00    +0.000 A 
ATOM     14  C   UNL     1      24.840   1.300  51.924  0.00  0.00    +0.000 A 
ATOM     15  O   UNL     1      24.714   1.995  50.931  0.00  0.00    +0.000 OA
ATOM     16  C   UNL     1      23.678   0.590  52.540  0.00  0.00    +0.000 A 
ATOM     17  C   UNL     1      23.998  -0.179  53.633  0.00  0.00    +0.000 A 
ENDROOT
BRANCH   1  18
ATOM     18  N   UNL     1      22.022   1.143  50.840  0.00  0.00    +0.000 N 
ATOM     19  H   UNL     1      22.659   1.042  50.096  0.00  0.00    +0.000 HD
BRANCH  18  20
ATOM     20  C   UNL     1      20.765   1.821  50.620  0.00  0.00    +0.000 C 
BRANCH  20  21
ATOM     21  C   UNL     1      20.959   3.343  50.722  0.00  0.00    +0.000 C 
BRANCH  21  22
ATOM     22  C   UNL     1      21.121   3.888  52.148  0.00  0.00    +0.000 C 
BRANCH  22  23
ATOM     23  C   UNL     1      22.431   4.635  52.436  0.00  0.00    +0.000 C 
BRANCH  23  24
ATOM     24  C   UNL     1      23.012   5.442  51.262  0.00  0.00    +0.000 C 
BRANCH  24  26
ATOM     25  C   UNL     1      24.048   7.613  50.838  0.00  0.00    +0.000 C 
ATOM     26  N   UNL     1      22.890   6.903  51.391  0.00  0.00    +0.000 N 
ATOM     27  C   UNL     1      21.675   7.366  50.708  0.00  0.00    +0.000 C 
ATOM     28  H   UNL     1      22.841   7.110  52.388  0.00  0.00    +0.000 HD
ENDBRANCH  24  26
ENDBRANCH  23  24
ENDBRANCH  22  23
ENDBRANCH  21  22
ENDBRANCH  20  21
ENDBRANCH  18  20
ENDBRANCH   1  18
BRANCH  11  29
ATOM     29  O   UNL     1      28.329   2.803  54.302  0.00  0.00    +0.000 OA
ATOM     30  H   UNL     1      29.087   2.839  54.852  0.00  0.00    +0.000 HD
ENDBRANCH  11  29
TORSDOF 8
ENDMDL
MODEL 3
REMARK VINA RESULT:    -7.620      2.774      3.780
REMARK INTER + INTRA:         -12.346
REMARK INTER:                 -11.736
REMARK INTRA:                  -0.609
REMARK UNBOUND:                -1.385
REMARK  Name = 
REMARK  10 active torsions:
REMARK  status: ('A' for Active; 'I' for Inactive)
REMARK    1  A    between atoms: C_1  and  N_2
REMARK    2  A    between atoms: N_2  and  C_3
REMARK    3  A    between atoms: N_2  and  C_4
REMARK    4  A    between atoms: C_4  and  C_5
REMARK    5  A    between atoms: C_5  and  C_6
REMARK    6  A    between atoms: C_6  and  C_7
REMARK    7  A    between atoms: C_7  and  C_8
REMARK    8  A    between atoms: C_8  and  N_9
REMARK    9  A    between atoms: N_9  and  C_10
REMARK   10  A    between atoms: C_20  and  O_21
REMARK                            x       y       z     vdW  Elec       q    Type
REMARK                         _______ _______ _______ _____ _____    ______ ____
ROOT
ATOM      1  C   UNL     1      23.972   2.190  51.210  0.00  0.00    +0.000 A 
ATOM      2  C   UNL     1      22.703   1.737  51.612  0.00  0.00    +0.000 A 
ATOM      3  C   UNL     1      22.509   0.819  52.676  0.00  0.00    +0.000 A 
ATOM      4  C   UNL     1      23.657   0.259  53.287  0.00  0.00    +0.000 A 
ATOM      5  N   UNL     1      23.821  -0.679  54.280  0.00  0.00    +0.000 NA
ATOM      6  C   UNL     1      25.128  -0.776  54.442  0.00  0.00    +0.000 A 
ATOM      7  N   UNL     1      25.806   0.033  53.585  0.00  0.00    +0.000 N 
ATOM      8  C   UNL     1      27.181   0.352  53.442  0.00  0.00    +0.000 A 
ATOM      9  C   UNL     1      28.196  -0.361  54.027  0.00  0.00    +0.000 A 
ATOM     10  C   UNL     1      29.430   0.236  54.080  0.00  0.00    +0.000 A 
ATOM     11  C   UNL     1      29.481   1.613  53.999  0.00  0.00    +0.000 A 
ATOM     12  C   UNL     1      28.644   2.237  53.073  0.00  0.00    +0.000 A 
ATOM     13  C   UNL     1      27.473   1.557  52.768  0.00  0.00    +0.000 A 
ATOM     14  C   UNL     1      26.495   2.174  51.811  0.00  0.00    +0.000 A 
ATOM     15  O   UNL     1      26.827   3.033  51.014  0.00  0.00    +0.000 OA
ATOM     16  C   UNL     1      25.077   1.716  51.931  0.00  0.00    +0.000 A 
ATOM     17  C   UNL     1      24.880   0.716  52.852  0.00  0.00    +0.000 A 
ENDROOT
BRANCH   1  18
ATOM     18  N   UNL     1      24.170   2.982  50.055  0.00  0.00    +0.000 N 
ATOM     19  H   UNL     1      24.606   2.592  49.263  0.00  0.00    +0.000 HD
BRANCH  18  20
ATOM     20  C   UNL     1      23.738   4.360  50.033  0.00  0.00    +0.000 C 
BRANCH  20  21
ATOM     21  C   UNL     1      24.476   5.128  48.924  0.00  0.00    +0.000 C 
BRANCH  21  22
ATOM     22  C   UNL     1      25.708   5.921  49.386  0.00  0.00    +0.000 C 
BRANCH  22  23
ATOM     23  C   UNL     1      27.025   5.591  48.670  0.00  0.00    +0.000 C 
BRANCH  23  24
ATOM     24  C   UNL     1      27.800   6.796  48.107  0.00  0.00    +0.000 C 
BRANCH  24  26
ATOM     25  C   UNL     1      29.969   7.757  48.685  0.00  0.00    +0.000 C 
ATOM     26  N   UNL     1      28.578   7.554  49.100  0.00  0.00    +0.000 N 
ATOM     27  C   UNL     1      27.952   8.862  49.334  0.00  0.00    +0.000 C 
ATOM     28  H   UNL     1      28.583   7.002  49.957  0.00  0.00    +0.000 HD
ENDBRANCH  24  26
ENDBRANCH  23  24
ENDBRANCH  22  23
ENDBRANCH  21  22
ENDBRANCH  20  21
ENDBRANCH  18  20
ENDBRANCH   1  18
BRANCH  11  29
ATOM     29  O   UNL     1      29.345   2.237  55.270  0.00  0.00    +0.000 OA
ATOM     30  H   UNL     1      29.842   1.925  56.000  0.00  0.00    +0.000 HD
ENDBRANCH  11  29
TORSDOF 8
ENDMDL
MODEL 4
REMARK VINA RESULT:    -7.258      2.103      3.675
REMARK INTER + INTRA:         -11.825
REMARK INTER:                 -11.140
REMARK INTRA:                  -0.684
REMARK UNBOUND:                -1.385
REMARK  Name = 
REMARK  10 active torsions:
REMARK  status: ('A' for Active; 'I' for Inactive)
REMARK    1  A    between atoms: C_1  and  N_2
REMARK    2  A    between atoms: N_2  and  C_3
REMARK    3  A    between atoms: N_2  and  C_4
REMARK    4  A    between atoms: C_4  and  C_5
REMARK    5  A    between atoms: C_5  and  C_6
REMARK    6  A    between atoms: C_6  and  C_7
REMARK    7  A    between atoms: C_7  and  C_8
REMARK    8  A    between atoms: C_8  and  N_9
REMARK    9  A    between atoms: N_9  and  C_10
REMARK   10  A    between atoms: C_20  and  O_21
REMARK                            x       y       z     vdW  Elec       q    Type
REMARK                         _______ _______ _______ _____ _____    ______ ____
ROOT
ATOM      1  C   UNL     1      22.034   0.381  52.278  0.00  0.00    +0.000 A 
ATOM      2  C   UNL     1      21.142  -0.258  53.157  0.00  0.00    +0.000 A 
ATOM      3  C   UNL     1      21.554  -0.875  54.366  0.00  0.00    +0.000 A 
ATOM      4  C   UNL     1      22.942  -0.937  54.641  0.00  0.00    +0.000 A 
ATOM      5  N   UNL     1      23.665  -1.500  55.667  0.00  0.00    +0.000 NA
ATOM      6  C   UNL     1      24.924  -1.211  55.391  0.00  0.00    +0.000 A 
ATOM      7  N   UNL     1      25.041  -0.515  54.229  0.00  0.00    +0.000 N 
ATOM      8  C   UNL     1      26.144   0.097  53.577  0.00  0.00    +0.000 A 
ATOM      9  C   UNL     1      27.454  -0.148  53.899  0.00  0.00    +0.000 A 
ATOM     10  C   UNL     1      28.390   0.737  53.428  0.00  0.00    +0.000 A 
ATOM     11  C   UNL     1      27.962   2.007  53.098  0.00  0.00    +0.000 A 
ATOM     12  C   UNL     1      26.751   2.125  52.416  0.00  0.00    +0.000 A 
ATOM     13  C   UNL     1      25.832   1.110  52.647  0.00  0.00    +0.000 A 
ATOM     14  C   UNL     1      24.486   1.176  51.985  0.00  0.00    +0.000 A 
ATOM     15  O   UNL     1      24.290   1.846  50.987  0.00  0.00    +0.000 OA
ATOM     16  C   UNL     1      23.384   0.418  52.654  0.00  0.00    +0.000 A 
ATOM     17  C   UNL     1      23.782  -0.315  53.745  0.00  0.00    +0.000 A 
ENDROOT
BRANCH   1  18
ATOM     18  N   UNL     1      21.643   0.859  51.006  0.00  0.00    +0.000 N 
ATOM     19  H   UNL     1      22.128   0.564  50.201  0.00  0.00    +0.000 HD
BRANCH  18  20
ATOM     20  C   UNL     1      20.536   1.778  50.880  0.00  0.00    +0.000 C 
BRANCH  20  21
ATOM     21  C   UNL     1      19.709   1.444  49.627  0.00  0.00    +0.000 C 
BRANCH  21  22
ATOM     22  C   UNL     1      18.267   0.990  49.897  0.00  0.00    +0.000 C 
BRANCH  22  23
ATOM     23  C   UNL     1      18.049   0.176  51.180  0.00  0.00    +0.000 C 
BRANCH  23  24
ATOM     24  C   UNL     1      16.722  -0.598  51.263  0.00  0.00    +0.000 C 
BRANCH  24  26
ATOM     25  C   UNL     1      15.633  -2.441  52.440  0.00  0.00    +0.000 C 
ATOM     26  N   UNL     1      16.450  -1.230  52.564  0.00  0.00    +0.000 N 
ATOM     27  C   UNL     1      17.714  -1.571  53.230  0.00  0.00    +0.000 C 
ATOM     28  H   UNL     1      15.926  -0.552  53.119  0.00  0.00    +0.000 HD
ENDBRANCH  24  26
ENDBRANCH  23  24
ENDBRANCH  22  23
ENDBRANCH  21  22
ENDBRANCH  20  21
ENDBRANCH  18  20
ENDBRANCH   1  18
BRANCH  11  29
ATOM     29  O   UNL     1      27.977   2.892  54.211  0.00  0.00    +0.000 OA
ATOM     30  H   UNL     1      28.554   2.730  54.930  0.00  0.00    +0.000 HD
ENDBRANCH  11  29
TORSDOF 8
ENDMDL
MODEL 5
REMARK VINA RESULT:    -7.086      1.987      4.292
REMARK INTER + INTRA:         -11.577
REMARK INTER:                 -10.426
REMARK INTRA:                  -1.151
REMARK UNBOUND:                -1.385
REMARK  Name = 
REMARK  10 active torsions:
REMARK  status: ('A' for Active; 'I' for Inactive)
REMARK    1  A    between atoms: C_1  and  N_2
REMARK    2  A    between atoms: N_2  and  C_3
REMARK    3  A    between atoms: N_2  and  C_4
REMARK    4  A    between atoms: C_4  and  C_5
REMARK    5  A    between atoms: C_5  and  C_6
REMARK    6  A    between atoms: C_6  and  C_7
REMARK    7  A    between atoms: C_7  and  C_8
REMARK    8  A    between atoms: C_8  and  N_9
REMARK    9  A    between atoms: N_9  and  C_10
REMARK   10  A    between atoms: C_20  and  O_21
REMARK                            x       y       z     vdW  Elec       q    Type
REMARK                         _______ _______ _______ _____ _____    ______ ____
ROOT
ATOM      1  C   UNL     1      24.310  -0.318  53.698  0.00  0.00    +0.000 A 
ATOM      2  C   UNL     1      25.135  -0.714  54.766  0.00  0.00    +0.000 A 
ATOM      3  C   UNL     1      26.417  -0.155  55.004  0.00  0.00    +0.000 A 
ATOM      4  C   UNL     1      26.924   0.769  54.058  0.00  0.00    +0.000 A 
ATOM      5  N   UNL     1      28.122   1.437  53.958  0.00  0.00    +0.000 NA
ATOM      6  C   UNL     1      28.005   2.182  52.873  0.00  0.00    +0.000 A 
ATOM      7  N   UNL     1      26.803   2.003  52.264  0.00  0.00    +0.000 N 
ATOM      8  C   UNL     1      26.178   2.633  51.157  0.00  0.00    +0.000 A 
ATOM      9  C   UNL     1      26.839   3.431  50.259  0.00  0.00    +0.000 A 
ATOM     10  C   UNL     1      26.073   4.227  49.447  0.00  0.00    +0.000 A 
ATOM     11  C   UNL     1      24.797   4.539  49.872  0.00  0.00    +0.000 A 
ATOM     12  C   UNL     1      24.044   3.520  50.457  0.00  0.00    +0.000 A 
ATOM     13  C   UNL     1      24.774   2.521  51.088  0.00  0.00    +0.000 A 
ATOM     14  C   UNL     1      24.044   1.405  51.778  0.00  0.00    +0.000 A 
ATOM     15  O   UNL     1      22.891   1.122  51.504  0.00  0.00    +0.000 OA
ATOM     16  C   UNL     1      24.792   0.700  52.863  0.00  0.00    +0.000 A 
ATOM     17  C   UNL     1      26.092   1.116  53.019  0.00  0.00    +0.000 A 
ENDROOT
BRANCH   1  18
ATOM     18  N   UNL     1      23.104  -0.983  53.377  0.00  0.00    +0.000 N 
ATOM     19  H   UNL     1      22.874  -1.151  52.434  0.00  0.00    +0.000 HD
BRANCH  18  20
ATOM     20  C   UNL     1      22.207  -1.415  54.423  0.00  0.00    +0.000 C 
BRANCH  20  21
ATOM     21  C   UNL     1      20.751  -1.114  54.031  0.00  0.00    +0.000 C 
BRANCH  21  22
ATOM     22  C   UNL     1      20.424   0.373  53.825  0.00  0.00    +0.000 C 
BRANCH  22  23
ATOM     23  C   UNL     1      19.680   0.723  52.528  0.00  0.00    +0.000 C 
BRANCH  23  24
ATOM     24  C   UNL     1      19.663   2.214  52.149  0.00  0.00    +0.000 C 
BRANCH  24  26
ATOM     25  C   UNL     1      19.591   1.916  49.726  0.00  0.00    +0.000 C 
ATOM     26  N   UNL     1      20.289   2.535  50.856  0.00  0.00    +0.000 N 
ATOM     27  C   UNL     1      20.319   3.990  50.662  0.00  0.00    +0.000 C 
ATOM     28  H   UNL     1      21.237   2.159  50.885  0.00  0.00    +0.000 HD
ENDBRANCH  24  26
ENDBRANCH  23  24
ENDBRANCH  22  23
ENDBRANCH  21  22
ENDBRANCH  20  21
ENDBRANCH  18  20
ENDBRANCH   1  18
BRANCH  11  29
ATOM     29  O   UNL     1      24.768   5.695  50.699  0.00  0.00    +0.000 OA
ATOM     30  H   UNL     1      24.476   5.629  51.587  0.00  0.00    +0.000 HD
ENDBRANCH  11  29
TORSDOF 8
ENDMDL
MODEL 6
REMARK VINA RESULT:    -7.046      3.523      6.005
REMARK INTER + INTRA:         -11.520
REMARK INTER:                 -10.910
REMARK INTRA:                  -0.610
REMARK UNBOUND:                -1.385
REMARK  Name = 
REMARK  10 active torsions:
REMARK  status: ('A' for Active; 'I' for Inactive)
REMARK    1  A    between atoms: C_1  and  N_2
REMARK    2  A    between atoms: N_2  and  C_3
REMARK    3  A    between atoms: N_2  and  C_4
REMARK    4  A    between atoms: C_4  and  C_5
REMARK    5  A    between atoms: C_5  and  C_6
REMARK    6  A    between atoms: C_6  and  C_7
REMARK    7  A    between atoms: C_7  and  C_8
REMARK    8  A    between atoms: C_8  and  N_9
REMARK    9  A    between atoms: N_9  and  C_10
REMARK   10  A    between atoms: C_20  and  O_21
REMARK                            x       y       z     vdW  Elec       q    Type
REMARK                         _______ _______ _______ _____ _____    ______ ____
ROOT
ATOM      1  C   UNL     1      24.596   3.935  51.397  0.00  0.00    +0.000 A 
ATOM      2  C   UNL     1      23.904   5.146  51.217  0.00  0.00    +0.000 A 
ATOM      3  C   UNL     1      22.519   5.295  51.489  0.00  0.00    +0.000 A 
ATOM      4  C   UNL     1      21.787   4.141  51.859  0.00  0.00    +0.000 A 
ATOM      5  N   UNL     1      20.456   3.929  52.129  0.00  0.00    +0.000 NA
ATOM      6  C   UNL     1      20.373   2.648  52.442  0.00  0.00    +0.000 A 
ATOM      7  N   UNL     1      21.581   2.029  52.360  0.00  0.00    +0.000 N 
ATOM      8  C   UNL     1      22.018   0.719  52.687  0.00  0.00    +0.000 A 
ATOM      9  C   UNL     1      21.171  -0.333  52.922  0.00  0.00    +0.000 A 
ATOM     10  C   UNL     1      21.700  -1.438  53.539  0.00  0.00    +0.000 A 
ATOM     11  C   UNL     1      22.848  -1.266  54.287  0.00  0.00    +0.000 A 
ATOM     12  C   UNL     1      23.843  -0.439  53.764  0.00  0.00    +0.000 A 
ATOM     13  C   UNL     1      23.402   0.562  52.909  0.00  0.00    +0.000 A 
ATOM     14  C   UNL     1      24.400   1.523  52.330  0.00  0.00    +0.000 A 
ATOM     15  O   UNL     1      25.587   1.257  52.262  0.00  0.00    +0.000 OA
ATOM     16  C   UNL     1      23.864   2.849  51.897  0.00  0.00    +0.000 A 
ATOM     17  C   UNL     1      22.500   2.973  52.006  0.00  0.00    +0.000 A 
ENDROOT
BRANCH   1  18
ATOM     18  N   UNL     1      25.935   3.752  50.982  0.00  0.00    +0.000 N 
ATOM     19  H   UNL     1      26.669   3.876  51.626  0.00  0.00    +0.000 HD
BRANCH  18  20
ATOM     20  C   UNL     1      26.232   3.385  49.616  0.00  0.00    +0.000 C 
BRANCH  20  21
ATOM     21  C   UNL     1      27.226   4.386  49.003  0.00  0.00    +0.000 C 
BRANCH  21  22
ATOM     22  C   UNL     1      26.667   5.795  48.757  0.00  0.00    +0.000 C 
BRANCH  22  23
ATOM     23  C   UNL     1      27.626   6.791  48.091  0.00  0.00    +0.000 C 
BRANCH  23  24
ATOM     24  C   UNL     1      29.122   6.445  48.189  0.00  0.00    +0.000 C 
BRANCH  24  26
ATOM     25  C   UNL     1      31.333   7.178  48.925  0.00  0.00    +0.000 C 
ATOM     26  N   UNL     1      29.887   7.258  49.150  0.00  0.00    +0.000 N 
ATOM     27  C   UNL     1      29.466   8.662  49.064  0.00  0.00    +0.000 C 
ATOM     28  H   UNL     1      29.691   6.882  50.078  0.00  0.00    +0.000 HD
ENDBRANCH  24  26
ENDBRANCH  23  24
ENDBRANCH  22  23
ENDBRANCH  21  22
ENDBRANCH  20  21
ENDBRANCH  18  20
ENDBRANCH   1  18
BRANCH  11  29
ATOM     29  O   UNL     1      22.570  -0.894  55.631  0.00  0.00    +0.000 OA
ATOM     30  H   UNL     1      21.683  -0.825  55.924  0.00  0.00    +0.000 HD
ENDBRANCH  11  29
TORSDOF 8
ENDMDL
MODEL 7
REMARK VINA RESULT:    -6.995      1.496      2.677
REMARK INTER + INTRA:         -11.447
REMARK INTER:                 -10.790
REMARK INTRA:                  -0.656
REMARK UNBOUND:                -1.385
REMARK  Name = 
REMARK  10 active torsions:
REMARK  status: ('A' for Active; 'I' for Inactive)
REMARK    1  A    between atoms: C_1  and  N_2
REMARK    2  A    between atoms: N_2  and  C_3
REMARK    3  A    between atoms: N_2  and  C_4
REMARK    4  A    between atoms: C_4  and  C_5
REMARK    5  A    between atoms: C_5  and  C_6
REMARK    6  A    between atoms: C_6  and  C_7
REMARK    7  A    between atoms: C_7  and  C_8
REMARK    8  A    between atoms: C_8  and  N_9
REMARK    9  A    between atoms: N_9  and  C_10
REMARK   10  A    between atoms: C_20  and  O_21
REMARK                            x       y       z     vdW  Elec       q    Type
REMARK                         _______ _______ _______ _____ _____    ______ ____
ROOT
ATOM      1  C   UNL     1      23.850   2.090  51.434  0.00  0.00    +0.000 A 
ATOM      2  C   UNL     1      22.619   1.588  51.895  0.00  0.00    +0.000 A 
ATOM      3  C   UNL     1      22.512   0.659  52.962  0.00  0.00    +0.000 A 
ATOM      4  C   UNL     1      23.709   0.140  53.513  0.00  0.00    +0.000 A 
ATOM      5  N   UNL     1      23.955  -0.795  54.491  0.00  0.00    +0.000 NA
ATOM      6  C   UNL     1      25.271  -0.844  54.589  0.00  0.00    +0.000 A 
ATOM      7  N   UNL     1      25.876  -0.007  53.704  0.00  0.00    +0.000 N 
ATOM      8  C   UNL     1      27.230   0.364  53.497  0.00  0.00    +0.000 A 
ATOM      9  C   UNL     1      28.297  -0.313  54.027  0.00  0.00    +0.000 A 
ATOM     10  C   UNL     1      29.509   0.328  54.024  0.00  0.00    +0.000 A 
ATOM     11  C   UNL     1      29.506   1.707  53.949  0.00  0.00    +0.000 A 
ATOM     12  C   UNL     1      28.603   2.303  53.068  0.00  0.00    +0.000 A 
ATOM     13  C   UNL     1      27.444   1.581  52.817  0.00  0.00    +0.000 A 
ATOM     14  C   UNL     1      26.398   2.165  51.912  0.00  0.00    +0.000 A 
ATOM     15  O   UNL     1      26.659   3.040  51.105  0.00  0.00    +0.000 OA
ATOM     16  C   UNL     1      25.005   1.655  52.098  0.00  0.00    +0.000 A 
ATOM     17  C   UNL     1      24.890   0.644  53.021  0.00  0.00    +0.000 A 
ENDROOT
BRANCH   1  18
ATOM     18  N   UNL     1      23.962   2.893  50.276  0.00  0.00    +0.000 N 
ATOM     19  H   UNL     1      24.850   3.180  49.963  0.00  0.00    +0.000 HD
BRANCH  18  20
ATOM     20  C   UNL     1      22.780   3.298  49.551  0.00  0.00    +0.000 C 
BRANCH  20  21
ATOM     21  C   UNL     1      22.695   2.543  48.214  0.00  0.00    +0.000 C 
BRANCH  21  22
ATOM     22  C   UNL     1      21.422   1.708  48.014  0.00  0.00    +0.000 C 
BRANCH  22  23
ATOM     23  C   UNL     1      20.622   1.389  49.285  0.00  0.00    +0.000 C 
BRANCH  23  24
ATOM     24  C   UNL     1      19.218   2.013  49.365  0.00  0.00    +0.000 C 
BRANCH  24  26
ATOM     25  C   UNL     1      18.532   0.306  50.972  0.00  0.00    +0.000 C 
ATOM     26  N   UNL     1      18.479   1.725  50.605  0.00  0.00    +0.000 N 
ATOM     27  C   UNL     1      19.022   2.526  51.709  0.00  0.00    +0.000 C 
ATOM     28  H   UNL     1      17.504   1.969  50.432  0.00  0.00    +0.000 HD
ENDBRANCH  24  26
ENDBRANCH  23  24
ENDBRANCH  22  23
ENDBRANCH  21  22
ENDBRANCH  20  21
ENDBRANCH  18  20
ENDBRANCH   1  18
BRANCH  11  29
ATOM     29  O   UNL     1      29.410   2.320  55.228  0.00  0.00    +0.000 OA
ATOM     30  H   UNL     1      30.152   2.758  55.594  0.00  0.00    +0.000 HD
ENDBRANCH  11  29
TORSDOF 8
ENDMDL
MODEL 8
REMARK VINA RESULT:    -6.826      2.908      5.228
REMARK INTER + INTRA:         -11.204
REMARK INTER:                 -10.737
REMARK INTRA:                  -0.467
REMARK UNBOUND:                -1.385
REMARK  Name = 
REMARK  10 active torsions:
REMARK  status: ('A' for Active; 'I' for Inactive)
REMARK    1  A    between atoms: C_1  and  N_2
REMARK    2  A    between atoms: N_2  and  C_3
REMARK    3  A    between atoms: N_2  and  C_4
REMARK    4  A    between atoms: C_4  and  C_5
REMARK    5  A    between atoms: C_5  and  C_6
REMARK    6  A    between atoms: C_6  and  C_7
REMARK    7  A    between atoms: C_7  and  C_8
REMARK    8  A    between atoms: C_8  and  N_9
REMARK    9  A    between atoms: N_9  and  C_10
REMARK   10  A    between atoms: C_20  and  O_21
REMARK                            x       y       z     vdW  Elec       q    Type
REMARK                         _______ _______ _______ _____ _____    ______ ____
ROOT
ATOM      1  C   UNL     1      23.711  -0.146  53.584  0.00  0.00    +0.000 A 
ATOM      2  C   UNL     1      24.488  -0.711  54.610  0.00  0.00    +0.000 A 
ATOM      3  C   UNL     1      25.843  -0.357  54.840  0.00  0.00    +0.000 A 
ATOM      4  C   UNL     1      26.462   0.528  53.925  0.00  0.00    +0.000 A 
ATOM      5  N   UNL     1      27.744   1.018  53.826  0.00  0.00    +0.000 NA
ATOM      6  C   UNL     1      27.717   1.824  52.780  0.00  0.00    +0.000 A 
ATOM      7  N   UNL     1      26.490   1.853  52.194  0.00  0.00    +0.000 N 
ATOM      8  C   UNL     1      25.945   2.622  51.133  0.00  0.00    +0.000 A 
ATOM      9  C   UNL     1      26.699   3.358  50.256  0.00  0.00    +0.000 A 
ATOM     10  C   UNL     1      26.044   4.297  49.502  0.00  0.00    +0.000 A 
ATOM     11  C   UNL     1      24.836   4.770  49.975  0.00  0.00    +0.000 A 
ATOM     12  C   UNL     1      23.952   3.845  50.530  0.00  0.00    +0.000 A 
ATOM     13  C   UNL     1      24.538   2.721  51.096  0.00  0.00    +0.000 A 
ATOM     14  C   UNL     1      23.665   1.691  51.752  0.00  0.00    +0.000 A 
ATOM     15  O   UNL     1      22.478   1.592  51.495  0.00  0.00    +0.000 OA
ATOM     16  C   UNL     1      24.321   0.830  52.784  0.00  0.00    +0.000 A 
ATOM     17  C   UNL     1      25.671   1.044  52.925  0.00  0.00    +0.000 A 
ENDROOT
BRANCH   1  18
ATOM     18  N   UNL     1      22.414  -0.610  53.263  0.00  0.00    +0.000 N 
ATOM     19  H   UNL     1      22.223  -0.941  52.355  0.00  0.00    +0.000 HD
BRANCH  18  20
ATOM     20  C   UNL     1      21.368  -0.602  54.260  0.00  0.00    +0.000 C 
BRANCH  20  21
ATOM     21  C   UNL     1      20.040  -1.061  53.637  0.00  0.00    +0.000 C 
BRANCH  21  22
ATOM     22  C   UNL     1      19.507  -0.172  52.504  0.00  0.00    +0.000 C 
BRANCH  22  23
ATOM     23  C   UNL     1      18.042  -0.400  52.104  0.00  0.00    +0.000 C 
BRANCH  23  24
ATOM     24  C   UNL     1      17.170  -1.123  53.145  0.00  0.00    +0.000 C 
BRANCH  24  26
ATOM     25  C   UNL     1      15.141   0.211  52.881  0.00  0.00    +0.000 C 
ATOM     26  N   UNL     1      15.728  -1.132  52.851  0.00  0.00    +0.000 N 
ATOM     27  C   UNL     1      15.490  -1.729  51.531  0.00  0.00    +0.000 C 
ATOM     28  H   UNL     1      15.280  -1.687  53.580  0.00  0.00    +0.000 HD
ENDBRANCH  24  26
ENDBRANCH  23  24
ENDBRANCH  22  23
ENDBRANCH  21  22
ENDBRANCH  20  21
ENDBRANCH  18  20
ENDBRANCH   1  18
BRANCH  11  29
ATOM     29  O   UNL     1      24.993   5.876  50.855  0.00  0.00    +0.000 OA
ATOM     30  H   UNL     1      24.553   5.883  51.681  0.00  0.00    +0.000 HD
ENDBRANCH  11  29
TORSDOF 8
ENDMDL
MODEL 9
REMARK VINA RESULT:    -6.715      2.216      3.994
REMARK INTER + INTRA:         -11.044
REMARK INTER:                 -10.254
REMARK INTRA:                  -0.790
REMARK UNBOUND:                -1.385
REMARK  Name = 
REMARK  10 active torsions:
REMARK  status: ('A' for Active; 'I' for Inactive)
REMARK    1  A    between atoms: C_1  and  N_2
REMARK    2  A    between atoms: N_2  and  C_3
REMARK    3  A    between atoms: N_2  and  C_4
REMARK    4  A    between atoms: C_4  and  C_5
REMARK    5  A    between atoms: C_5  and  C_6
REMARK    6  A    between atoms: C_6  and  C_7
REMARK    7  A    between atoms: C_7  and  C_8
REMARK    8  A    between atoms: C_8  and  N_9
REMARK    9  A    between atoms: N_9  and  C_10
REMARK   10  A    between atoms: C_20  and  O_21
REMARK                            x       y       z     vdW  Elec       q    Type
REMARK                         _______ _______ _______ _____ _____    ______ ____
ROOT
ATOM      1  C   UNL     1      23.109   0.607  52.762  0.00  0.00    +0.000 A 
ATOM      2  C   UNL     1      22.521   1.133  51.598  0.00  0.00    +0.000 A 
ATOM      3  C   UNL     1      23.234   1.919  50.656  0.00  0.00    +0.000 A 
ATOM      4  C   UNL     1      24.571   2.272  50.963  0.00  0.00    +0.000 A 
ATOM      5  N   UNL     1      25.502   3.049  50.314  0.00  0.00    +0.000 NA
ATOM      6  C   UNL     1      26.581   2.988  51.072  0.00  0.00    +0.000 A 
ATOM      7  N   UNL     1      26.377   2.232  52.184  0.00  0.00    +0.000 N 
ATOM      8  C   UNL     1      27.237   1.793  53.224  0.00  0.00    +0.000 A 
ATOM      9  C   UNL     1      28.483   2.314  53.456  0.00  0.00    +0.000 A 
ATOM     10  C   UNL     1      29.323   1.591  54.264  0.00  0.00    +0.000 A 
ATOM     11  C   UNL     1      29.080   0.238  54.396  0.00  0.00    +0.000 A 
ATOM     12  C   UNL     1      27.753  -0.169  54.533  0.00  0.00    +0.000 A 
ATOM     13  C   UNL     1      26.806   0.663  53.951  0.00  0.00    +0.000 A 
ATOM     14  C   UNL     1      25.356   0.282  54.016  0.00  0.00    +0.000 A 
ATOM     15  O   UNL     1      24.930  -0.496  54.852  0.00  0.00    +0.000 OA
ATOM     16  C   UNL     1      24.473   0.865  52.960  0.00  0.00    +0.000 A 
ATOM     17  C   UNL     1      25.102   1.751  52.120  0.00  0.00    +0.000 A 
ENDROOT
BRANCH   1  18
ATOM     18  N   UNL     1      22.360  -0.043  53.769  0.00  0.00    +0.000 N 
ATOM     19  H   UNL     1      22.483   0.211  54.712  0.00  0.00    +0.000 HD
BRANCH  18  20
ATOM     20  C   UNL     1      21.417  -1.081  53.423  0.00  0.00    +0.000 C 
BRANCH  20  21
ATOM     21  C   UNL     1      19.978  -0.576  53.618  0.00  0.00    +0.000 C 
BRANCH  21  22
ATOM     22  C   UNL     1      19.196  -0.308  52.323  0.00  0.00    +0.000 C 
BRANCH  22  23
ATOM     23  C   UNL     1      18.948   1.168  51.982  0.00  0.00    +0.000 C 
BRANCH  23  24
ATOM     24  C   UNL     1      18.624   1.467  50.508  0.00  0.00    +0.000 C 
BRANCH  24  26
ATOM     25  C   UNL     1      18.221   3.742  51.301  0.00  0.00    +0.000 C 
ATOM     26  N   UNL     1      18.580   2.896  50.159  0.00  0.00    +0.000 N 
ATOM     27  C   UNL     1      19.884   3.325  49.637  0.00  0.00    +0.000 C 
ATOM     28  H   UNL     1      17.857   3.005  49.447  0.00  0.00    +0.000 HD
ENDBRANCH  24  26
ENDBRANCH  23  24
ENDBRANCH  22  23
ENDBRANCH  21  22
ENDBRANCH  20  21
ENDBRANCH  18  20
ENDBRANCH   1  18
BRANCH  11  29
ATOM     29  O   UNL     1      29.718  -0.529  53.383  0.00  0.00    +0.000 OA
ATOM     30  H   UNL     1      29.470  -1.421  53.245  0.00  0.00    +0.000 HD
ENDBRANCH  11  29
TORSDOF 8
ENDMDL
