MODEL 1
REMARK VINA RESULT:   -10.015      0.000      0.000
REMARK INTER + INTRA:         -14.079
REMARK INTER:                 -12.943
REMARK INTRA:                  -1.136
REMARK UNBOUND:                -1.136
REMARK  Name = 
REMARK  6 active torsions:
REMARK  status: ('A' for Active; 'I' for Inactive)
REMARK    1  A    between atoms: C_1  and  N_2
REMARK    2  A    between atoms: N_2  and  C_3
REMARK    3  A    between atoms: N_2  and  C_19
REMARK    4  A    between atoms: C_3  and  C_4
REMARK    5  A    between atoms: C_7  and  S_8
REMARK    6  A    between atoms: S_8  and  C_11
REMARK                            x       y       z     vdW  Elec       q    Type
REMARK                         _______ _______ _______ _____ _____    ______ ____
ROOT
ATOM      1  C   UNL     1      21.581   0.982  49.067  0.00  0.00    +0.000 C 
ATOM      2  N   UNL     1      20.443   1.207  49.958  0.00  0.00    +0.000 N 
ENDROOT
BRANCH   2   3
ATOM      3  C   UNL     1      20.482   0.694  51.268  0.00  0.00    +0.000 A 
ATOM      4  C   UNL     1      19.325   0.152  51.901  0.00  0.00    +0.000 A 
ATOM      5  C   UNL     1      19.357  -0.567  53.123  0.00  0.00    +0.000 A 
ATOM      6  C   UNL     1      20.606  -0.788  53.685  0.00  0.00    +0.000 A 
ATOM      7  C   UNL     1      21.700  -0.182  53.097  0.00  0.00    +0.000 A 
ATOM      8  C   UNL     1      22.800  -0.549  53.832  0.00  0.00    +0.000 A 
ATOM      9  C   UNL     1      24.063  -0.093  53.481  0.00  0.00    +0.000 A 
ATOM     10  C   UNL     1      24.095   0.928  52.521  0.00  0.00    +0.000 A 
ATOM     11  C   UNL     1      22.929   1.325  51.840  0.00  0.00    +0.000 A 
ATOM     12  C   UNL     1      21.698   0.642  52.018  0.00  0.00    +0.000 A 
ATOM     13  C   UNL     1      22.255  -1.365  54.873  0.00  0.00    +0.000 C 
ATOM     14  N   UNL     1      23.115  -1.807  55.824  0.00  0.00    +0.000 N 
ATOM     15  N   UNL     1      20.955  -1.515  54.814  0.00  0.00    +0.000 N 
ATOM     16  H   UNL     1      24.079  -1.621  55.742  0.00  0.00    +0.000 HD
ATOM     17  H   UNL     1      22.776  -2.313  56.598  0.00  0.00    +0.000 HD
ATOM     18  H   UNL     1      20.368  -2.020  55.423  0.00  0.00    +0.000 HD
ENDBRANCH   2   3
BRANCH   2  19
ATOM     19  C   UNL     1      19.712   2.464  49.708  0.00  0.00    +0.000 C 
BRANCH  19  20
ATOM     20  C   UNL     1      20.540   3.733  49.773  0.00  0.00    +0.000 A 
ATOM     21  C   UNL     1      21.005   4.192  51.016  0.00  0.00    +0.000 A 
ATOM     22  C   UNL     1      21.964   5.200  51.089  0.00  0.00    +0.000 A 
ATOM     23  C   UNL     1      22.464   5.766  49.915  0.00  0.00    +0.000 A 
ATOM     24  C   UNL     1      21.967   5.369  48.669  0.00  0.00    +0.000 A 
ATOM     25  C   UNL     1      20.996   4.362  48.602  0.00  0.00    +0.000 A 
BRANCH  23  26
ATOM     26  S   UNL     1      23.889   6.829  50.008  0.00  0.00    +0.000 S 
ATOM     27  O   UNL     1      23.677   7.901  49.048  0.00  0.00    +0.000 OA
ATOM     28  O   UNL     1      24.097   7.151  51.409  0.00  0.00    +0.000 OA
BRANCH  26  29
ATOM     29  C   UNL     1      25.303   5.904  49.462  0.00  0.00    +0.000 A 
ATOM     30  C   UNL     1      26.319   6.555  48.750  0.00  0.00    +0.000 A 
ATOM     31  C   UNL     1      27.474   5.854  48.408  0.00  0.00    +0.000 A 
ATOM     32  C   UNL     1      27.619   4.519  48.779  0.00  0.00    +0.000 A 
ATOM     33  C   UNL     1      26.606   3.873  49.497  0.00  0.00    +0.000 A 
ATOM     34  C   UNL     1      25.449   4.574  49.847  0.00  0.00    +0.000 A 
ENDBRANCH  26  29
ENDBRANCH  23  26
ENDBRANCH  19  20
ENDBRANCH   2  19
TORSDOF 5
ENDMDL
MODEL 2
REMARK VINA RESULT:    -9.753      2.422      3.820
REMARK INTER + INTRA:         -13.740
REMARK INTER:                 -12.259
REMARK INTRA:                  -1.480
REMARK UNBOUND:                -1.136
REMARK  Name = 
REMARK  6 active torsions:
REMARK  status: ('A' for Active; 'I' for Inactive)
REMARK    1  A    between atoms: C_1  and  N_2
REMARK    2  A    between atoms: N_2  and  C_3
REMARK    3  A    between atoms: N_2  and  C_19
REMARK    4  A    between atoms: C_3  and  C_4
REMARK    5  A    between atoms: C_7  and  S_8
REMARK    6  A    between atoms: S_8  and  C_11
REMARK                            x       y       z     vdW  Elec       q    Type
REMARK                         _______ _______ _______ _____ _____    ______ ____
ROOT
ATOM      1  C   UNL     1      21.968   0.812  50.493  0.00  0.00    +0.000 C 
ATOM      2  N   UNL     1      22.595   1.465  51.641  0.00  0.00    +0.000 N 
ENDROOT
BRANCH   2   3
ATOM      3  C   UNL     1      23.996   1.428  51.773  0.00  0.00    +0.000 A 
ATOM      4  C   UNL     1      24.857   2.149  50.892  0.00  0.00    +0.000 A 
ATOM      5  C   UNL     1      26.248   2.318  51.111  0.00  0.00    +0.000 A 
ATOM      6  C   UNL     1      26.764   1.789  52.285  0.00  0.00    +0.000 A 
ATOM      7  C   UNL     1      25.928   1.025  53.077  0.00  0.00    +0.000 A 
ATOM      8  C   UNL     1      26.668   0.622  54.162  0.00  0.00    +0.000 A 
ATOM      9  C   UNL     1      26.094  -0.168  55.148  0.00  0.00    +0.000 A 
ATOM     10  C   UNL     1      24.838  -0.709  54.840  0.00  0.00    +0.000 A 
ATOM     11  C   UNL     1      24.143  -0.320  53.679  0.00  0.00    +0.000 A 
ATOM     12  C   UNL     1      24.632   0.706  52.830  0.00  0.00    +0.000 A 
ATOM     13  C   UNL     1      27.963   1.176  53.913  0.00  0.00    +0.000 C 
ATOM     14  N   UNL     1      28.948   0.860  54.791  0.00  0.00    +0.000 N 
ATOM     15  N   UNL     1      28.050   1.865  52.802  0.00  0.00    +0.000 N 
ATOM     16  H   UNL     1      28.740   0.330  55.595  0.00  0.00    +0.000 HD
ATOM     17  H   UNL     1      29.871   1.160  54.625  0.00  0.00    +0.000 HD
ATOM     18  H   UNL     1      28.835   2.324  52.426  0.00  0.00    +0.000 HD
ENDBRANCH   2   3
BRANCH   2  19
ATOM     19  C   UNL     1      21.864   2.642  52.148  0.00  0.00    +0.000 C 
BRANCH  19  20
ATOM     20  C   UNL     1      22.291   3.980  51.577  0.00  0.00    +0.000 A 
ATOM     21  C   UNL     1      23.154   4.804  52.317  0.00  0.00    +0.000 A 
ATOM     22  C   UNL     1      23.759   5.912  51.728  0.00  0.00    +0.000 A 
ATOM     23  C   UNL     1      23.500   6.212  50.390  0.00  0.00    +0.000 A 
ATOM     24  C   UNL     1      22.593   5.443  49.653  0.00  0.00    +0.000 A 
ATOM     25  C   UNL     1      21.980   4.336  50.254  0.00  0.00    +0.000 A 
BRANCH  23  26
ATOM     26  S   UNL     1      24.498   7.439  49.571  0.00  0.00    +0.000 S 
ATOM     27  O   UNL     1      23.828   7.758  48.320  0.00  0.00    +0.000 OA
ATOM     28  O   UNL     1      24.762   8.494  50.534  0.00  0.00    +0.000 OA
BRANCH  26  29
ATOM     29  C   UNL     1      26.057   6.696  49.160  0.00  0.00    +0.000 A 
ATOM     30  C   UNL     1      26.182   5.301  49.176  0.00  0.00    +0.000 A 
ATOM     31  C   UNL     1      27.375   4.713  48.759  0.00  0.00    +0.000 A 
ATOM     32  C   UNL     1      28.431   5.509  48.320  0.00  0.00    +0.000 A 
ATOM     33  C   UNL     1      28.301   6.902  48.297  0.00  0.00    +0.000 A 
ATOM     34  C   UNL     1      27.105   7.495  48.711  0.00  0.00    +0.000 A 
ENDBRANCH  26  29
ENDBRANCH  23  26
ENDBRANCH  19  20
ENDBRANCH   2  19
TORSDOF 5
ENDMDL
MODEL 3
REMARK VINA RESULT:    -9.734      1.856      2.891
REMARK INTER + INTRA:         -13.714
REMARK INTER:                 -12.474
REMARK INTRA:                  -1.240
REMARK UNBOUND:                -1.136
REMARK  Name = 
REMARK  6 active torsions:
REMARK  status: ('A' for Active; 'I' for Inactive)
REMARK    1  A    between atoms: C_1  and  N_2
REMARK    2  A    between atoms: N_2  and  C_3
REMARK    3  A    between atoms: N_2  and  C_19
REMARK    4  A    between atoms: C_3  and  C_4
REMARK    5  A    between atoms: C_7  and  S_8
REMARK    6  A    between atoms: S_8  and  C_11
REMARK                            x       y       z     vdW  Elec       q    Type
REMARK                         _______ _______ _______ _____ _____    ______ ____
ROOT
ATOM      1  C   UNL     1      22.374   1.580  49.965  0.00  0.00    +0.000 C 
ATOM      2  N   UNL     1      22.077   1.707  51.391  0.00  0.00    +0.000 N 
ENDROOT
BRANCH   2   3
ATOM      3  C   UNL     1      22.950   1.125  52.330  0.00  0.00    +0.000 A 
ATOM      4  C   UNL     1      22.485   0.231  53.341  0.00  0.00    +0.000 A 
ATOM      5  C   UNL     1      23.341  -0.542  54.165  0.00  0.00    +0.000 A 
ATOM      6  C   UNL     1      24.703  -0.445  53.916  0.00  0.00    +0.000 A 
ATOM      7  C   UNL     1      25.130   0.488  52.991  0.00  0.00    +0.000 A 
ATOM      8  C   UNL     1      26.499   0.390  52.930  0.00  0.00    +0.000 A 
ATOM      9  C   UNL     1      27.224   1.209  52.077  0.00  0.00    +0.000 A 
ATOM     10  C   UNL     1      26.511   2.269  51.500  0.00  0.00    +0.000 A 
ATOM     11  C   UNL     1      25.115   2.373  51.646  0.00  0.00    +0.000 A 
ATOM     12  C   UNL     1      24.360   1.359  52.291  0.00  0.00    +0.000 A 
ATOM     13  C   UNL     1      26.808  -0.625  53.890  0.00  0.00    +0.000 C 
ATOM     14  N   UNL     1      28.120  -0.879  54.117  0.00  0.00    +0.000 N 
ATOM     15  N   UNL     1      25.762  -1.130  54.496  0.00  0.00    +0.000 N 
ATOM     16  H   UNL     1      28.810  -0.424  53.582  0.00  0.00    +0.000 HD
ATOM     17  H   UNL     1      28.385  -1.519  54.817  0.00  0.00    +0.000 HD
ATOM     18  H   UNL     1      25.733  -1.825  55.192  0.00  0.00    +0.000 HD
ENDBRANCH   2   3
BRANCH   2  19
ATOM     19  C   UNL     1      21.359   2.943  51.758  0.00  0.00    +0.000 C 
BRANCH  19  20
ATOM     20  C   UNL     1      21.952   4.232  51.226  0.00  0.00    +0.000 A 
ATOM     21  C   UNL     1      22.878   4.942  52.007  0.00  0.00    +0.000 A 
ATOM     22  C   UNL     1      23.624   5.984  51.458  0.00  0.00    +0.000 A 
ATOM     23  C   UNL     1      23.444   6.330  50.118  0.00  0.00    +0.000 A 
ATOM     24  C   UNL     1      22.481   5.680  49.340  0.00  0.00    +0.000 A 
ATOM     25  C   UNL     1      21.728   4.641  49.900  0.00  0.00    +0.000 A 
BRANCH  23  26
ATOM     26  S   UNL     1      24.600   7.449  49.355  0.00  0.00    +0.000 S 
ATOM     27  O   UNL     1      24.046   7.805  48.058  0.00  0.00    +0.000 OA
ATOM     28  O   UNL     1      24.894   8.493  50.320  0.00  0.00    +0.000 OA
BRANCH  26  29
ATOM     29  C   UNL     1      26.110   6.563  49.057  0.00  0.00    +0.000 A 
ATOM     30  C   UNL     1      26.126   5.168  49.181  0.00  0.00    +0.000 A 
ATOM     31  C   UNL     1      27.282   4.463  48.852  0.00  0.00    +0.000 A 
ATOM     32  C   UNL     1      28.410   5.142  48.396  0.00  0.00    +0.000 A 
ATOM     33  C   UNL     1      28.389   6.535  48.266  0.00  0.00    +0.000 A 
ATOM     34  C   UNL     1      27.230   7.245  48.591  0.00  0.00    +0.000 A 
ENDBRANCH  26  29
ENDBRANCH  23  26
ENDBRANCH  19  20
ENDBRANCH   2  19
TORSDOF 5
ENDMDL
MODEL 4
REMARK VINA RESULT:    -9.630      1.910      3.482
REMARK INTER + INTRA:         -13.581
REMARK INTER:                 -12.753
REMARK INTRA:                  -0.827
REMARK UNBOUND:                -1.136
REMARK  Name = 
REMARK  6 active torsions:
REMARK  status: ('A' for Active; 'I' for Inactive)
REMARK    1  A    between atoms: C_1  and  N_2
REMARK    2  A    between atoms: N_2  and  C_3
REMARK    3  A    between atoms: N_2  and  C_19
REMARK    4  A    between atoms: C_3  and  C_4
REMARK    5  A    between atoms: C_7  and  S_8
REMARK    6  A    between atoms: S_8  and  C_11
REMARK                            x       y       z     vdW  Elec       q    Type
REMARK                         _______ _______ _______ _____ _____    ______ ____
ROOT
ATOM      1  C   UNL     1      25.553   0.058  53.043  0.00  0.00    +0.000 C 
ATOM      2  N   UNL     1      24.280   0.766  52.912  0.00  0.00    +0.000 N 
ENDROOT
BRANCH   2   3
ATOM      3  C   UNL     1      23.078   0.064  53.121  0.00  0.00    +0.000 A 
ATOM      4  C   UNL     1      22.881  -0.775  54.258  0.00  0.00    +0.000 A 
ATOM      5  C   UNL     1      21.628  -1.327  54.625  0.00  0.00    +0.000 A 
ATOM      6  C   UNL     1      20.536  -0.969  53.848  0.00  0.00    +0.000 A 
ATOM      7  C   UNL     1      20.767  -0.225  52.706  0.00  0.00    +0.000 A 
ATOM      8  C   UNL     1      19.544  -0.007  52.120  0.00  0.00    +0.000 A 
ATOM      9  C   UNL     1      19.450   0.721  50.942  0.00  0.00    +0.000 A 
ATOM     10  C   UNL     1      20.664   0.985  50.293  0.00  0.00    +0.000 A 
ATOM     11  C   UNL     1      21.897   0.682  50.899  0.00  0.00    +0.000 A 
ATOM     12  C   UNL     1      21.967   0.194  52.230  0.00  0.00    +0.000 A 
ATOM     13  C   UNL     1      18.629  -0.694  52.979  0.00  0.00    +0.000 C 
ATOM     14  N   UNL     1      17.330  -0.730  52.594  0.00  0.00    +0.000 N 
ATOM     15  N   UNL     1      19.193  -1.281  54.006  0.00  0.00    +0.000 N 
ATOM     16  H   UNL     1      17.040  -0.236  51.792  0.00  0.00    +0.000 HD
ATOM     17  H   UNL     1      16.675  -1.248  53.115  0.00  0.00    +0.000 HD
ATOM     18  H   UNL     1      18.768  -1.813  54.717  0.00  0.00    +0.000 HD
ENDBRANCH   2   3
BRANCH   2  19
ATOM     19  C   UNL     1      24.338   2.197  53.266  0.00  0.00    +0.000 C 
BRANCH  19  20
ATOM     20  C   UNL     1      24.125   3.168  52.122  0.00  0.00    +0.000 A 
ATOM     21  C   UNL     1      23.692   4.476  52.397  0.00  0.00    +0.000 A 
ATOM     22  C   UNL     1      23.724   5.459  51.409  0.00  0.00    +0.000 A 
ATOM     23  C   UNL     1      24.184   5.140  50.131  0.00  0.00    +0.000 A 
ATOM     24  C   UNL     1      24.558   3.829  49.818  0.00  0.00    +0.000 A 
ATOM     25  C   UNL     1      24.514   2.843  50.811  0.00  0.00    +0.000 A 
BRANCH  23  26
ATOM     26  S   UNL     1      24.500   6.456  48.975  0.00  0.00    +0.000 S 
ATOM     27  O   UNL     1      23.806   6.110  47.744  0.00  0.00    +0.000 OA
ATOM     28  O   UNL     1      24.189   7.706  49.646  0.00  0.00    +0.000 OA
BRANCH  26  29
ATOM     29  C   UNL     1      26.239   6.468  48.614  0.00  0.00    +0.000 A 
ATOM     30  C   UNL     1      26.984   5.292  48.773  0.00  0.00    +0.000 A 
ATOM     31  C   UNL     1      28.325   5.274  48.397  0.00  0.00    +0.000 A 
ATOM     32  C   UNL     1      28.917   6.415  47.858  0.00  0.00    +0.000 A 
ATOM     33  C   UNL     1      28.169   7.585  47.693  0.00  0.00    +0.000 A 
ATOM     34  C   UNL     1      26.822   7.607  48.065  0.00  0.00    +0.000 A 
ENDBRANCH  26  29
ENDBRANCH  23  26
ENDBRANCH  19  20
ENDBRANCH   2  19
TORSDOF 5
ENDMDL
MODEL 5
REMARK VINA RESULT:    -9.594      4.146      7.561
REMARK INTER + INTRA:         -13.534
REMARK INTER:                 -11.691
REMARK INTRA:                  -1.843
REMARK UNBOUND:                -1.136
REMARK  Name = 
REMARK  6 active torsions:
REMARK  status: ('A' for Active; 'I' for Inactive)
REMARK    1  A    between atoms: C_1  and  N_2
REMARK    2  A    between atoms: N_2  and  C_3
REMARK    3  A    between atoms: N_2  and  C_19
REMARK    4  A    between atoms: C_3  and  C_4
REMARK    5  A    between atoms: C_7  and  S_8
REMARK    6  A    between atoms: S_8  and  C_11
REMARK                            x       y       z     vdW  Elec       q    Type
REMARK                         _______ _______ _______ _____ _____    ______ ____
ROOT
ATOM      1  C   UNL     1      21.491   7.461  48.973  0.00  0.00    +0.000 C 
ATOM      2  N   UNL     1      22.624   6.792  49.611  0.00  0.00    +0.000 N 
ENDROOT
BRANCH   2   3
ATOM      3  C   UNL     1      23.886   6.830  48.988  0.00  0.00    +0.000 A 
ATOM      4  C   UNL     1      24.393   8.018  48.381  0.00  0.00    +0.000 A 
ATOM      5  C   UNL     1      25.730   8.168  47.936  0.00  0.00    +0.000 A 
ATOM      6  C   UNL     1      26.589   7.102  48.167  0.00  0.00    +0.000 A 
ATOM      7  C   UNL     1      26.054   5.935  48.679  0.00  0.00    +0.000 A 
ATOM      8  C   UNL     1      27.093   5.047  48.810  0.00  0.00    +0.000 A 
ATOM      9  C   UNL     1      26.866   3.771  49.307  0.00  0.00    +0.000 A 
ATOM     10  C   UNL     1      25.521   3.392  49.418  0.00  0.00    +0.000 A 
ATOM     11  C   UNL     1      24.483   4.318  49.206  0.00  0.00    +0.000 A 
ATOM     12  C   UNL     1      24.752   5.692  48.974  0.00  0.00    +0.000 A 
ATOM     13  C   UNL     1      28.223   5.772  48.317  0.00  0.00    +0.000 C 
ATOM     14  N   UNL     1      29.399   5.101  48.239  0.00  0.00    +0.000 N 
ATOM     15  N   UNL     1      27.950   6.990  47.920  0.00  0.00    +0.000 N 
ATOM     16  H   UNL     1      29.464   4.179  48.580  0.00  0.00    +0.000 HD
ATOM     17  H   UNL     1      30.189   5.535  47.842  0.00  0.00    +0.000 HD
ATOM     18  H   UNL     1      28.561   7.662  47.540  0.00  0.00    +0.000 HD
ENDBRANCH   2   3
BRANCH   2  19
ATOM     19  C   UNL     1      22.560   6.754  51.084  0.00  0.00    +0.000 C 
BRANCH  19  20
ATOM     20  C   UNL     1      22.435   5.376  51.704  0.00  0.00    +0.000 A 
ATOM     21  C   UNL     1      21.380   4.535  51.313  0.00  0.00    +0.000 A 
ATOM     22  C   UNL     1      21.375   3.187  51.669  0.00  0.00    +0.000 A 
ATOM     23  C   UNL     1      22.425   2.669  52.428  0.00  0.00    +0.000 A 
ATOM     24  C   UNL     1      23.451   3.502  52.882  0.00  0.00    +0.000 A 
ATOM     25  C   UNL     1      23.446   4.858  52.531  0.00  0.00    +0.000 A 
BRANCH  23  26
ATOM     26  S   UNL     1      22.559   0.904  52.621  0.00  0.00    +0.000 S 
ATOM     27  O   UNL     1      21.863   0.561  53.850  0.00  0.00    +0.000 OA
ATOM     28  O   UNL     1      22.143   0.298  51.367  0.00  0.00    +0.000 OA
BRANCH  26  29
ATOM     29  C   UNL     1      24.274   0.504  52.857  0.00  0.00    +0.000 A 
ATOM     30  C   UNL     1      24.661  -0.233  53.984  0.00  0.00    +0.000 A 
ATOM     31  C   UNL     1      25.989  -0.631  54.120  0.00  0.00    +0.000 A 
ATOM     32  C   UNL     1      26.922  -0.306  53.137  0.00  0.00    +0.000 A 
ATOM     33  C   UNL     1      26.531   0.424  52.009  0.00  0.00    +0.000 A 
ATOM     34  C   UNL     1      25.199   0.821  51.867  0.00  0.00    +0.000 A 
ENDBRANCH  26  29
ENDBRANCH  23  26
ENDBRANCH  19  20
ENDBRANCH   2  19
TORSDOF 5
ENDMDL
MODEL 6
REMARK VINA RESULT:    -9.449      2.394      5.180
REMARK INTER + INTRA:         -13.347
REMARK INTER:                 -10.631
REMARK INTRA:                  -2.715
REMARK UNBOUND:                -1.136
REMARK  Name = 
REMARK  6 active torsions:
REMARK  status: ('A' for Active; 'I' for Inactive)
REMARK    1  A    between atoms: C_1  and  N_2
REMARK    2  A    between atoms: N_2  and  C_3
REMARK    3  A    between atoms: N_2  and  C_19
REMARK    4  A    between atoms: C_3  and  C_4
REMARK    5  A    between atoms: C_7  and  S_8
REMARK    6  A    between atoms: S_8  and  C_11
REMARK                            x       y       z     vdW  Elec       q    Type
REMARK                         _______ _______ _______ _____ _____    ______ ____
ROOT
ATOM      1  C   UNL     1      26.470   0.692  52.083  0.00  0.00    +0.000 C 
ATOM      2  N   UNL     1      25.135   1.217  52.366  0.00  0.00    +0.000 N 
ENDROOT
BRANCH   2   3
ATOM      3  C   UNL     1      24.156   0.358  52.901  0.00  0.00    +0.000 A 
ATOM      4  C   UNL     1      24.398  -0.430  54.065  0.00  0.00    +0.000 A 
ATOM      5  C   UNL     1      23.387  -1.140  54.763  0.00  0.00    +0.000 A 
ATOM      6  C   UNL     1      22.088  -0.995  54.296  0.00  0.00    +0.000 A 
ATOM      7  C   UNL     1      21.893  -0.296  53.121  0.00  0.00    +0.000 A 
ATOM      8  C   UNL     1      20.542  -0.299  52.877  0.00  0.00    +0.000 A 
ATOM      9  C   UNL     1      20.030   0.335  51.753  0.00  0.00    +0.000 A 
ATOM     10  C   UNL     1      20.975   0.737  50.799  0.00  0.00    +0.000 A 
ATOM     11  C   UNL     1      22.356   0.658  51.062  0.00  0.00    +0.000 A 
ATOM     12  C   UNL     1      22.846   0.267  52.335  0.00  0.00    +0.000 A 
ATOM     13  C   UNL     1      20.003  -1.061  53.961  0.00  0.00    +0.000 C 
ATOM     14  N   UNL     1      18.671  -1.313  53.936  0.00  0.00    +0.000 N 
ATOM     15  N   UNL     1      20.900  -1.494  54.812  0.00  0.00    +0.000 N 
ATOM     16  H   UNL     1      18.108  -0.918  53.231  0.00  0.00    +0.000 HD
ATOM     17  H   UNL     1      18.265  -1.890  54.622  0.00  0.00    +0.000 HD
ATOM     18  H   UNL     1      20.765  -2.040  55.620  0.00  0.00    +0.000 HD
ENDBRANCH   2   3
BRANCH   2  19
ATOM     19  C   UNL     1      25.107   2.645  52.738  0.00  0.00    +0.000 C 
BRANCH  19  20
ATOM     20  C   UNL     1      24.104   3.502  51.993  0.00  0.00    +0.000 A 
ATOM     21  C   UNL     1      24.191   3.612  50.595  0.00  0.00    +0.000 A 
ATOM     22  C   UNL     1      23.152   4.179  49.860  0.00  0.00    +0.000 A 
ATOM     23  C   UNL     1      22.015   4.650  50.518  0.00  0.00    +0.000 A 
ATOM     24  C   UNL     1      21.936   4.610  51.914  0.00  0.00    +0.000 A 
ATOM     25  C   UNL     1      22.987   4.048  52.649  0.00  0.00    +0.000 A 
BRANCH  23  26
ATOM     26  S   UNL     1      20.584   5.095  49.557  0.00  0.00    +0.000 S 
ATOM     27  O   UNL     1      20.146   6.398  50.033  0.00  0.00    +0.000 OA
ATOM     28  O   UNL     1      20.932   4.921  48.158  0.00  0.00    +0.000 OA
BRANCH  26  29
ATOM     29  C   UNL     1      19.290   3.937  49.928  0.00  0.00    +0.000 A 
ATOM     30  C   UNL     1      18.635   4.008  51.164  0.00  0.00    +0.000 A 
ATOM     31  C   UNL     1      17.554   3.165  51.418  0.00  0.00    +0.000 A 
ATOM     32  C   UNL     1      17.125   2.265  50.444  0.00  0.00    +0.000 A 
ATOM     33  C   UNL     1      17.776   2.201  49.208  0.00  0.00    +0.000 A 
ATOM     34  C   UNL     1      18.857   3.048  48.948  0.00  0.00    +0.000 A 
ENDBRANCH  26  29
ENDBRANCH  23  26
ENDBRANCH  19  20
ENDBRANCH   2  19
TORSDOF 5
ENDMDL
MODEL 7
REMARK VINA RESULT:    -9.377      2.807      5.010
REMARK INTER + INTRA:         -13.254
REMARK INTER:                 -10.335
REMARK INTRA:                  -2.919
REMARK UNBOUND:                -1.136
REMARK  Name = 
REMARK  6 active torsions:
REMARK  status: ('A' for Active; 'I' for Inactive)
REMARK    1  A    between atoms: C_1  and  N_2
REMARK    2  A    between atoms: N_2  and  C_3
REMARK    3  A    between atoms: N_2  and  C_19
REMARK    4  A    between atoms: C_3  and  C_4
REMARK    5  A    between atoms: C_7  and  S_8
REMARK    6  A    between atoms: S_8  and  C_11
REMARK                            x       y       z     vdW  Elec       q    Type
REMARK                         _______ _______ _______ _____ _____    ______ ____
ROOT
ATOM      1  C   UNL     1      21.295  -0.088  54.773  0.00  0.00    +0.000 C 
ATOM      2  N   UNL     1      21.683   0.300  53.417  0.00  0.00    +0.000 N 
ENDROOT
BRANCH   2   3
ATOM      3  C   UNL     1      23.025   0.636  53.156  0.00  0.00    +0.000 A 
ATOM      4  C   UNL     1      24.085  -0.304  53.323  0.00  0.00    +0.000 A 
ATOM      5  C   UNL     1      25.412  -0.086  52.872  0.00  0.00    +0.000 A 
ATOM      6  C   UNL     1      25.651   1.094  52.181  0.00  0.00    +0.000 A 
ATOM      7  C   UNL     1      24.629   2.022  52.107  0.00  0.00    +0.000 A 
ATOM      8  C   UNL     1      25.113   3.087  51.386  0.00  0.00    +0.000 A 
ATOM      9  C   UNL     1      24.307   4.190  51.139  0.00  0.00    +0.000 A 
ATOM     10  C   UNL     1      23.109   4.242  51.864  0.00  0.00    +0.000 A 
ATOM     11  C   UNL     1      22.683   3.154  52.648  0.00  0.00    +0.000 A 
ATOM     12  C   UNL     1      23.393   1.925  52.657  0.00  0.00    +0.000 A 
ATOM     13  C   UNL     1      26.462   2.713  51.092  0.00  0.00    +0.000 C 
ATOM     14  N   UNL     1      27.230   3.629  50.454  0.00  0.00    +0.000 N 
ATOM     15  N   UNL     1      26.809   1.540  51.561  0.00  0.00    +0.000 N 
ATOM     16  H   UNL     1      26.835   4.480  50.152  0.00  0.00    +0.000 HD
ATOM     17  H   UNL     1      28.184   3.446  50.291  0.00  0.00    +0.000 HD
ATOM     18  H   UNL     1      27.680   1.085  51.490  0.00  0.00    +0.000 HD
ENDBRANCH   2   3
BRANCH   2  19
ATOM     19  C   UNL     1      20.888  -0.336  52.349  0.00  0.00    +0.000 C 
BRANCH  19  20
ATOM     20  C   UNL     1      20.532   0.552  51.174  0.00  0.00    +0.000 A 
ATOM     21  C   UNL     1      19.550   1.544  51.328  0.00  0.00    +0.000 A 
ATOM     22  C   UNL     1      19.375   2.530  50.359  0.00  0.00    +0.000 A 
ATOM     23  C   UNL     1      20.180   2.529  49.219  0.00  0.00    +0.000 A 
ATOM     24  C   UNL     1      21.119   1.514  49.015  0.00  0.00    +0.000 A 
ATOM     25  C   UNL     1      21.284   0.520  49.987  0.00  0.00    +0.000 A 
BRANCH  23  26
ATOM     26  S   UNL     1      20.153   3.948  48.144  0.00  0.00    +0.000 S 
ATOM     27  O   UNL     1      20.870   3.574  46.936  0.00  0.00    +0.000 OA
ATOM     28  O   UNL     1      18.774   4.394  48.051  0.00  0.00    +0.000 OA
BRANCH  26  29
ATOM     29  C   UNL     1      21.078   5.248  48.924  0.00  0.00    +0.000 A 
ATOM     30  C   UNL     1      22.324   5.618  48.401  0.00  0.00    +0.000 A 
ATOM     31  C   UNL     1      23.005   6.702  48.951  0.00  0.00    +0.000 A 
ATOM     32  C   UNL     1      22.445   7.418  50.007  0.00  0.00    +0.000 A 
ATOM     33  C   UNL     1      21.196   7.052  50.523  0.00  0.00    +0.000 A 
ATOM     34  C   UNL     1      20.508   5.968  49.971  0.00  0.00    +0.000 A 
ENDBRANCH  26  29
ENDBRANCH  23  26
ENDBRANCH  19  20
ENDBRANCH   2  19
TORSDOF 5
ENDMDL
MODEL 8
REMARK VINA RESULT:    -9.214      4.085      7.071
REMARK INTER + INTRA:         -13.043
REMARK INTER:                 -11.573
REMARK INTRA:                  -1.470
REMARK UNBOUND:                -1.136
REMARK  Name = 
REMARK  6 active torsions:
REMARK  status: ('A' for Active; 'I' for Inactive)
REMARK    1  A    between atoms: C_1  and  N_2
REMARK    2  A    between atoms: N_2  and  C_3
REMARK    3  A    between atoms: N_2  and  C_19
REMARK    4  A    between atoms: C_3  and  C_4
REMARK    5  A    between atoms: C_7  and  S_8
REMARK    6  A    between atoms: S_8  and  C_11
REMARK                            x       y       z     vdW  Elec       q    Type
REMARK                         _______ _______ _______ _____ _____    ______ ____
ROOT
ATOM      1  C   UNL     1      20.363   3.179  49.172  0.00  0.00    +0.000 C 
ATOM      2  N   UNL     1      21.529   3.563  49.967  0.00  0.00    +0.000 N 
ENDROOT
BRANCH   2   3
ATOM      3  C   UNL     1      22.464   4.466  49.426  0.00  0.00    +0.000 A 
ATOM      4  C   UNL     1      22.080   5.752  48.943  0.00  0.00    +0.000 A 
ATOM      5  C   UNL     1      23.001   6.772  48.593  0.00  0.00    +0.000 A 
ATOM      6  C   UNL     1      24.346   6.494  48.794  0.00  0.00    +0.000 A 
ATOM      7  C   UNL     1      24.695   5.215  49.182  0.00  0.00    +0.000 A 
ATOM      8  C   UNL     1      26.062   5.198  49.308  0.00  0.00    +0.000 A 
ATOM      9  C   UNL     1      26.717   4.036  49.693  0.00  0.00    +0.000 A 
ATOM     10  C   UNL     1      25.938   2.871  49.693  0.00  0.00    +0.000 A 
ATOM     11  C   UNL     1      24.546   2.925  49.488  0.00  0.00    +0.000 A 
ATOM     12  C   UNL     1      23.861   4.162  49.379  0.00  0.00    +0.000 A 
ATOM     13  C   UNL     1      26.453   6.524  48.941  0.00  0.00    +0.000 C 
ATOM     14  N   UNL     1      27.783   6.781  48.885  0.00  0.00    +0.000 N 
ATOM     15  N   UNL     1      25.455   7.311  48.622  0.00  0.00    +0.000 N 
ATOM     16  H   UNL     1      28.431   6.091  49.158  0.00  0.00    +0.000 HD
ATOM     17  H   UNL     1      28.103   7.658  48.571  0.00  0.00    +0.000 HD
ATOM     18  H   UNL     1      25.484   8.251  48.332  0.00  0.00    +0.000 HD
ENDBRANCH   2   3
BRANCH   2  19
ATOM     19  C   UNL     1      21.300   3.565  51.424  0.00  0.00    +0.000 C 
BRANCH  19  20
ATOM     20  C   UNL     1      22.194   2.647  52.234  0.00  0.00    +0.000 A 
ATOM     21  C   UNL     1      21.938   1.266  52.247  0.00  0.00    +0.000 A 
ATOM     22  C   UNL     1      22.872   0.373  52.769  0.00  0.00    +0.000 A 
ATOM     23  C   UNL     1      24.073   0.856  53.291  0.00  0.00    +0.000 A 
ATOM     24  C   UNL     1      24.320   2.231  53.348  0.00  0.00    +0.000 A 
ATOM     25  C   UNL     1      23.374   3.124  52.831  0.00  0.00    +0.000 A 
BRANCH  23  26
ATOM     26  S   UNL     1      25.371  -0.300  53.677  0.00  0.00    +0.000 S 
ATOM     27  O   UNL     1      25.029  -0.906  54.955  0.00  0.00    +0.000 OA
ATOM     28  O   UNL     1      25.560  -1.144  52.510  0.00  0.00    +0.000 OA
BRANCH  26  29
ATOM     29  C   UNL     1      26.873   0.618  53.915  0.00  0.00    +0.000 A 
ATOM     30  C   UNL     1      27.843   0.135  54.803  0.00  0.00    +0.000 A 
ATOM     31  C   UNL     1      29.061   0.801  54.917  0.00  0.00    +0.000 A 
ATOM     32  C   UNL     1      29.315   1.934  54.145  0.00  0.00    +0.000 A 
ATOM     33  C   UNL     1      28.348   2.409  53.253  0.00  0.00    +0.000 A 
ATOM     34  C   UNL     1      27.126   1.742  53.133  0.00  0.00    +0.000 A 
ENDBRANCH  26  29
ENDBRANCH  23  26
ENDBRANCH  19  20
ENDBRANCH   2  19
TORSDOF 5
ENDMDL
MODEL 9
REMARK VINA RESULT:    -9.201      2.355      3.859
REMARK INTER + INTRA:         -13.026
REMARK INTER:                 -10.817
REMARK INTRA:                  -2.209
REMARK UNBOUND:                -1.136
REMARK  Name = 
REMARK  6 active torsions:
REMARK  status: ('A' for Active; 'I' for Inactive)
REMARK    1  A    between atoms: C_1  and  N_2
REMARK    2  A    between atoms: N_2  and  C_3
REMARK    3  A    between atoms: N_2  and  C_19
REMARK    4  A    between atoms: C_3  and  C_4
REMARK    5  A    between atoms: C_7  and  S_8
REMARK    6  A    between atoms: S_8  and  C_11
REMARK                            x       y       z     vdW  Elec       q    Type
REMARK                         _______ _______ _______ _____ _____    ______ ____
ROOT
ATOM      1  C   UNL     1      20.426   0.411  54.016  0.00  0.00    +0.000 C 
ATOM      2  N   UNL     1      21.539   0.522  53.073  0.00  0.00    +0.000 N 
ENDROOT
BRANCH   2   3
ATOM      3  C   UNL     1      22.855   0.342  53.537  0.00  0.00    +0.000 A 
ATOM      4  C   UNL     1      23.195  -0.689  54.464  0.00  0.00    +0.000 A 
ATOM      5  C   UNL     1      24.527  -1.047  54.794  0.00  0.00    +0.000 A 
ATOM      6  C   UNL     1      25.538  -0.378  54.119  0.00  0.00    +0.000 A 
ATOM      7  C   UNL     1      25.185   0.670  53.290  0.00  0.00    +0.000 A 
ATOM      8  C   UNL     1      26.350   1.160  52.752  0.00  0.00    +0.000 A 
ATOM      9  C   UNL     1      26.318   2.229  51.867  0.00  0.00    +0.000 A 
ATOM     10  C   UNL     1      25.092   2.902  51.771  0.00  0.00    +0.000 A 
ATOM     11  C   UNL     1      23.935   2.403  52.398  0.00  0.00    +0.000 A 
ATOM     12  C   UNL     1      23.936   1.150  53.065  0.00  0.00    +0.000 A 
ATOM     13  C   UNL     1      27.366   0.348  53.347  0.00  0.00    +0.000 C 
ATOM     14  N   UNL     1      28.653   0.667  53.065  0.00  0.00    +0.000 N 
ATOM     15  N   UNL     1      26.912  -0.565  54.169  0.00  0.00    +0.000 N 
ATOM     16  H   UNL     1      28.853   1.384  52.420  0.00  0.00    +0.000 HD
ATOM     17  H   UNL     1      29.389   0.183  53.505  0.00  0.00    +0.000 HD
ATOM     18  H   UNL     1      27.422  -1.224  54.695  0.00  0.00    +0.000 HD
ENDBRANCH   2   3
BRANCH   2  19
ATOM     19  C   UNL     1      21.210   0.119  51.692  0.00  0.00    +0.000 C 
BRANCH  19  20
ATOM     20  C   UNL     1      21.165   1.238  50.671  0.00  0.00    +0.000 A 
ATOM     21  C   UNL     1      20.440   2.406  50.957  0.00  0.00    +0.000 A 
ATOM     22  C   UNL     1      20.579   3.542  50.161  0.00  0.00    +0.000 A 
ATOM     23  C   UNL     1      21.442   3.518  49.065  0.00  0.00    +0.000 A 
ATOM     24  C   UNL     1      22.124   2.345  48.725  0.00  0.00    +0.000 A 
ATOM     25  C   UNL     1      21.973   1.204  49.521  0.00  0.00    +0.000 A 
BRANCH  23  26
ATOM     26  S   UNL     1      21.835   5.047  48.243  0.00  0.00    +0.000 S 
ATOM     27  O   UNL     1      22.324   4.699  46.918  0.00  0.00    +0.000 OA
ATOM     28  O   UNL     1      20.681   5.919  48.375  0.00  0.00    +0.000 OA
BRANCH  26  29
ATOM     29  C   UNL     1      23.179   5.813  49.116  0.00  0.00    +0.000 A 
ATOM     30  C   UNL     1      22.903   6.691  50.172  0.00  0.00    +0.000 A 
ATOM     31  C   UNL     1      23.955   7.215  50.921  0.00  0.00    +0.000 A 
ATOM     32  C   UNL     1      25.270   6.860  50.626  0.00  0.00    +0.000 A 
ATOM     33  C   UNL     1      25.542   5.976  49.575  0.00  0.00    +0.000 A 
ATOM     34  C   UNL     1      24.490   5.445  48.825  0.00  0.00    +0.000 A 
ENDBRANCH  26  29
ENDBRANCH  23  26
ENDBRANCH  19  20
ENDBRANCH   2  19
TORSDOF 5
ENDMDL
