MODEL 1
REMARK VINA RESULT:    -7.447      0.000      0.000
REMARK INTER + INTRA:         -11.374
REMARK INTER:                 -10.277
REMARK INTRA:                  -1.097
REMARK UNBOUND:                -1.097
REMARK  Name = 
REMARK  12 active torsions:
REMARK  status: ('A' for Active; 'I' for Inactive)
REMARK    1  A    between atoms: C_1  and  C_2
REMARK    2  A    between atoms: C_2  and  C_3
REMARK    3  A    between atoms: C_3  and  C_4
REMARK    4  A    between atoms: C_10  and  C_11
REMARK    5  A    between atoms: C_11  and  O_12
REMARK    6  A    between atoms: C_11  and  C_13
REMARK    7  A    between atoms: C_13  and  C_14
REMARK    8  A    between atoms: C_15  and  O_16
REMARK    9  A    between atoms: O_16  and  C_17
REMARK   10  A    between atoms: C_17  and  C_18
REMARK   11  A    between atoms: C_23  and  C_24
REMARK   12  A    between atoms: C_23  and  C_25
REMARK                            x       y       z     vdW  Elec       q    Type
REMARK                         _______ _______ _______ _____ _____    ______ ____
ROOT
ATOM      1  C   UNL     1      23.808   3.013  49.633  0.00  0.00    +0.000 A 
ATOM      2  C   UNL     1      23.171   2.651  48.498  0.00  0.00    +0.000 A 
ATOM      3  C   UNL     1      21.822   3.293  48.520  0.00  0.00    +0.000 A 
ATOM      4  O   UNL     1      21.302   3.810  47.544  0.00  0.00    +0.000 OA
ATOM      5  O   UNL     1      21.186   3.157  49.761  0.00  0.00    +0.000 OA
ATOM      6  C   UNL     1      21.795   2.475  50.860  0.00  0.00    +0.000 A 
ATOM      7  C   UNL     1      21.000   1.974  51.906  0.00  0.00    +0.000 A 
ATOM      8  C   UNL     1      21.677   1.141  52.831  0.00  0.00    +0.000 A 
ATOM      9  C   UNL     1      23.101   0.958  52.779  0.00  0.00    +0.000 A 
ATOM     10  C   UNL     1      23.862   1.590  51.776  0.00  0.00    +0.000 A 
ATOM     11  C   UNL     1      23.197   2.331  50.798  0.00  0.00    +0.000 A 
ATOM     12  O   UNL     1      25.228   1.513  51.690  0.00  0.00    +0.000 OA
ATOM     13  C   UNL     1      25.967   0.696  52.623  0.00  0.00    +0.000 C 
ATOM     14  C   UNL     1      26.729  -0.339  51.784  0.00  0.00    +0.000 C 
ATOM     15  C   UNL     1      26.985   1.597  53.341  0.00  0.00    +0.000 C 
ATOM     16  C   UNL     1      25.129  -0.009  53.661  0.00  0.00    +0.000 C 
ATOM     17  C   UNL     1      23.801   0.121  53.748  0.00  0.00    +0.000 C 
ENDROOT
BRANCH   1  18
ATOM     18  C   UNL     1      24.181   4.475  49.849  0.00  0.00    +0.000 C 
BRANCH  18  20
ATOM     19  C   UNL     1      26.618   3.811  49.472  0.00  0.00    +0.000 C 
ATOM     20  C   UNL     1      25.543   4.873  49.288  0.00  0.00    +0.000 C 
ENDBRANCH  18  20
ENDBRANCH   1  18
BRANCH   7  21
ATOM     21  C   UNL     1      19.533   2.383  52.086  0.00  0.00    +0.000 C 
BRANCH  21  22
ATOM     22  O   UNL     1      19.437   3.810  52.060  0.00  0.00    +0.000 OA
ATOM     23  H   UNL     1      18.666   4.073  51.533  0.00  0.00    +0.000 HD
ENDBRANCH  21  22
BRANCH  21  24
ATOM     24  C   UNL     1      18.500   1.823  51.087  0.00  0.00    +0.000 C 
ATOM     25  C   UNL     1      18.739   0.402  50.603  0.00  0.00    +0.000 C 
ENDBRANCH  21  24
ENDBRANCH   7  21
BRANCH   8  26
ATOM     26  O   UNL     1      21.035   0.563  53.912  0.00  0.00    +0.000 OA
BRANCH  26  27
ATOM     27  C   UNL     1      20.348  -0.667  53.632  0.00  0.00    +0.000 C 
ATOM     28  C   UNL     1      21.015  -1.842  54.336  0.00  0.00    +0.000 C 
ENDBRANCH  26  27
ENDBRANCH   8  26
TORSDOF 7
ENDMDL
MODEL 2
REMARK VINA RESULT:    -7.085      1.452      5.286
REMARK INTER + INTRA:         -10.875
REMARK INTER:                  -9.777
REMARK INTRA:                  -1.098
REMARK UNBOUND:                -1.097
REMARK  Name = 
REMARK  12 active torsions:
REMARK  status: ('A' for Active; 'I' for Inactive)
REMARK    1  A    between atoms: C_1  and  C_2
REMARK    2  A    between atoms: C_2  and  C_3
REMARK    3  A    between atoms: C_3  and  C_4
REMARK    4  A    between atoms: C_10  and  C_11
REMARK    5  A    between atoms: C_11  and  O_12
REMARK    6  A    between atoms: C_11  and  C_13
REMARK    7  A    between atoms: C_13  and  C_14
REMARK    8  A    between atoms: C_15  and  O_16
REMARK    9  A    between atoms: O_16  and  C_17
REMARK   10  A    between atoms: C_17  and  C_18
REMARK   11  A    between atoms: C_23  and  C_24
REMARK   12  A    between atoms: C_23  and  C_25
REMARK                            x       y       z     vdW  Elec       q    Type
REMARK                         _______ _______ _______ _____ _____    ______ ____
ROOT
ATOM      1  C   UNL     1      21.724   1.466  52.549  0.00  0.00    +0.000 A 
ATOM      2  C   UNL     1      20.990   2.524  52.960  0.00  0.00    +0.000 A 
ATOM      3  C   UNL     1      20.260   3.047  51.766  0.00  0.00    +0.000 A 
ATOM      4  O   UNL     1      19.095   3.412  51.792  0.00  0.00    +0.000 OA
ATOM      5  O   UNL     1      21.084   3.155  50.639  0.00  0.00    +0.000 OA
ATOM      6  C   UNL     1      22.467   2.791  50.667  0.00  0.00    +0.000 A 
ATOM      7  C   UNL     1      23.351   3.307  49.704  0.00  0.00    +0.000 A 
ATOM      8  C   UNL     1      24.723   3.050  49.948  0.00  0.00    +0.000 A 
ATOM      9  C   UNL     1      25.152   2.193  51.018  0.00  0.00    +0.000 A 
ATOM     10  C   UNL     1      24.205   1.604  51.878  0.00  0.00    +0.000 A 
ATOM     11  C   UNL     1      22.858   1.929  51.714  0.00  0.00    +0.000 A 
ATOM     12  O   UNL     1      24.526   0.731  52.886  0.00  0.00    +0.000 OA
ATOM     13  C   UNL     1      25.908   0.419  53.160  0.00  0.00    +0.000 C 
ATOM     14  C   UNL     1      26.165   0.830  54.616  0.00  0.00    +0.000 C 
ATOM     15  C   UNL     1      26.084  -1.103  53.036  0.00  0.00    +0.000 C 
ATOM     16  C   UNL     1      26.909   1.097  52.258  0.00  0.00    +0.000 C 
ATOM     17  C   UNL     1      26.564   1.909  51.252  0.00  0.00    +0.000 C 
ENDROOT
BRANCH   1  18
ATOM     18  C   UNL     1      21.018   0.207  52.061  0.00  0.00    +0.000 C 
BRANCH  18  20
ATOM     19  C   UNL     1      21.381  -0.999  54.283  0.00  0.00    +0.000 C 
ATOM     20  C   UNL     1      20.407  -0.648  53.166  0.00  0.00    +0.000 C 
ENDBRANCH  18  20
ENDBRANCH   1  18
BRANCH   7  21
ATOM     21  C   UNL     1      22.858   4.007  48.432  0.00  0.00    +0.000 C 
BRANCH  21  22
ATOM     22  O   UNL     1      21.700   3.325  47.941  0.00  0.00    +0.000 OA
ATOM     23  H   UNL     1      20.901   3.758  48.280  0.00  0.00    +0.000 HD
ENDBRANCH  21  22
BRANCH  21  24
ATOM     24  C   UNL     1      22.517   5.509  48.522  0.00  0.00    +0.000 C 
ATOM     25  C   UNL     1      23.308   6.431  47.608  0.00  0.00    +0.000 C 
ENDBRANCH  21  24
ENDBRANCH   7  21
BRANCH   8  26
ATOM     26  O   UNL     1      25.721   3.497  49.099  0.00  0.00    +0.000 OA
BRANCH  26  27
ATOM     27  C   UNL     1      26.186   4.832  49.347  0.00  0.00    +0.000 C 
ATOM     28  C   UNL     1      27.539   5.074  48.690  0.00  0.00    +0.000 C 
ENDBRANCH  26  27
ENDBRANCH   8  26
TORSDOF 7
ENDMDL
MODEL 3
REMARK VINA RESULT:    -7.026      1.954      4.974
REMARK INTER + INTRA:         -10.793
REMARK INTER:                  -9.865
REMARK INTRA:                  -0.928
REMARK UNBOUND:                -1.097
REMARK  Name = 
REMARK  12 active torsions:
REMARK  status: ('A' for Active; 'I' for Inactive)
REMARK    1  A    between atoms: C_1  and  C_2
REMARK    2  A    between atoms: C_2  and  C_3
REMARK    3  A    between atoms: C_3  and  C_4
REMARK    4  A    between atoms: C_10  and  C_11
REMARK    5  A    between atoms: C_11  and  O_12
REMARK    6  A    between atoms: C_11  and  C_13
REMARK    7  A    between atoms: C_13  and  C_14
REMARK    8  A    between atoms: C_15  and  O_16
REMARK    9  A    between atoms: O_16  and  C_17
REMARK   10  A    between atoms: C_17  and  C_18
REMARK   11  A    between atoms: C_23  and  C_24
REMARK   12  A    between atoms: C_23  and  C_25
REMARK                            x       y       z     vdW  Elec       q    Type
REMARK                         _______ _______ _______ _____ _____    ______ ____
ROOT
ATOM      1  C   UNL     1      25.730   2.535  52.356  0.00  0.00    +0.000 A 
ATOM      2  C   UNL     1      26.183   2.336  53.614  0.00  0.00    +0.000 A 
ATOM      3  C   UNL     1      25.995   0.888  53.930  0.00  0.00    +0.000 A 
ATOM      4  O   UNL     1      26.821   0.211  54.520  0.00  0.00    +0.000 OA
ATOM      5  O   UNL     1      24.731   0.417  53.552  0.00  0.00    +0.000 OA
ATOM      6  C   UNL     1      23.757   1.260  52.932  0.00  0.00    +0.000 A 
ATOM      7  C   UNL     1      22.395   0.911  52.969  0.00  0.00    +0.000 A 
ATOM      8  C   UNL     1      21.504   1.912  52.511  0.00  0.00    +0.000 A 
ATOM      9  C   UNL     1      21.979   3.128  51.910  0.00  0.00    +0.000 A 
ATOM     10  C   UNL     1      23.362   3.366  51.788  0.00  0.00    +0.000 A 
ATOM     11  C   UNL     1      24.252   2.436  52.327  0.00  0.00    +0.000 A 
ATOM     12  O   UNL     1      23.896   4.471  51.179  0.00  0.00    +0.000 OA
ATOM     13  C   UNL     1      23.030   5.510  50.675  0.00  0.00    +0.000 C 
ATOM     14  C   UNL     1      23.427   6.800  51.406  0.00  0.00    +0.000 C 
ATOM     15  C   UNL     1      23.319   5.683  49.174  0.00  0.00    +0.000 C 
ATOM     16  C   UNL     1      21.554   5.258  50.857  0.00  0.00    +0.000 C 
ATOM     17  C   UNL     1      21.060   4.147  51.415  0.00  0.00    +0.000 C 
ENDROOT
BRANCH   1  18
ATOM     18  C   UNL     1      26.456   1.881  51.186  0.00  0.00    +0.000 C 
BRANCH  18  20
ATOM     19  C   UNL     1      26.823   3.845  49.594  0.00  0.00    +0.000 C 
ATOM     20  C   UNL     1      26.151   2.498  49.825  0.00  0.00    +0.000 C 
ENDBRANCH  18  20
ENDBRANCH   1  18
BRANCH   7  21
ATOM     21  C   UNL     1      21.922  -0.489  53.380  0.00  0.00    +0.000 C 
BRANCH  21  22
ATOM     22  O   UNL     1      22.816  -1.465  52.837  0.00  0.00    +0.000 OA
ATOM     23  H   UNL     1      22.363  -1.964  52.139  0.00  0.00    +0.000 HD
ENDBRANCH  21  22
BRANCH  21  24
ATOM     24  C   UNL     1      21.762  -0.783  54.886  0.00  0.00    +0.000 C 
ATOM     25  C   UNL     1      22.894  -1.557  55.541  0.00  0.00    +0.000 C 
ENDBRANCH  21  24
ENDBRANCH   7  21
BRANCH   8  26
ATOM     26  O   UNL     1      20.133   1.727  52.491  0.00  0.00    +0.000 OA
BRANCH  26  27
ATOM     27  C   UNL     1      19.632   0.963  51.382  0.00  0.00    +0.000 C 
ATOM     28  C   UNL     1      18.571  -0.032  51.835  0.00  0.00    +0.000 C 
ENDBRANCH  26  27
ENDBRANCH   8  26
TORSDOF 7
ENDMDL
MODEL 4
REMARK VINA RESULT:    -6.905      2.287      5.493
REMARK INTER + INTRA:         -10.626
REMARK INTER:                  -9.997
REMARK INTRA:                  -0.629
REMARK UNBOUND:                -1.097
REMARK  Name = 
REMARK  12 active torsions:
REMARK  status: ('A' for Active; 'I' for Inactive)
REMARK    1  A    between atoms: C_1  and  C_2
REMARK    2  A    between atoms: C_2  and  C_3
REMARK    3  A    between atoms: C_3  and  C_4
REMARK    4  A    between atoms: C_10  and  C_11
REMARK    5  A    between atoms: C_11  and  O_12
REMARK    6  A    between atoms: C_11  and  C_13
REMARK    7  A    between atoms: C_13  and  C_14
REMARK    8  A    between atoms: C_15  and  O_16
REMARK    9  A    between atoms: O_16  and  C_17
REMARK   10  A    between atoms: C_17  and  C_18
REMARK   11  A    between atoms: C_23  and  C_24
REMARK   12  A    between atoms: C_23  and  C_25
REMARK                            x       y       z     vdW  Elec       q    Type
REMARK                         _______ _______ _______ _____ _____    ______ ____
ROOT
ATOM      1  C   UNL     1      22.444   3.490  51.685  0.00  0.00    +0.000 A 
ATOM      2  C   UNL     1      22.771   4.709  52.168  0.00  0.00    +0.000 A 
ATOM      3  C   UNL     1      24.085   5.087  51.566  0.00  0.00    +0.000 A 
ATOM      4  O   UNL     1      24.344   6.207  51.155  0.00  0.00    +0.000 OA
ATOM      5  O   UNL     1      25.014   4.039  51.607  0.00  0.00    +0.000 OA
ATOM      6  C   UNL     1      24.699   2.762  52.168  0.00  0.00    +0.000 A 
ATOM      7  C   UNL     1      25.730   1.907  52.596  0.00  0.00    +0.000 A 
ATOM      8  C   UNL     1      25.304   0.766  53.321  0.00  0.00    +0.000 A 
ATOM      9  C   UNL     1      23.912   0.441  53.466  0.00  0.00    +0.000 A 
ATOM     10  C   UNL     1      22.926   1.276  52.905  0.00  0.00    +0.000 A 
ATOM     11  C   UNL     1      23.325   2.456  52.277  0.00  0.00    +0.000 A 
ATOM     12  O   UNL     1      21.582   1.008  52.949  0.00  0.00    +0.000 OA
ATOM     13  C   UNL     1      21.099  -0.154  53.656  0.00  0.00    +0.000 C 
ATOM     14  C   UNL     1      20.143   0.364  54.741  0.00  0.00    +0.000 C 
ATOM     15  C   UNL     1      20.300  -1.015  52.664  0.00  0.00    +0.000 C 
ATOM     16  C   UNL     1      22.167  -1.010  54.289  0.00  0.00    +0.000 C 
ATOM     17  C   UNL     1      23.475  -0.748  54.190  0.00  0.00    +0.000 C 
ENDROOT
BRANCH   1  18
ATOM     18  C   UNL     1      22.145   3.327  50.199  0.00  0.00    +0.000 C 
BRANCH  18  20
ATOM     19  C   UNL     1      21.190   1.082  49.444  0.00  0.00    +0.000 C 
ATOM     20  C   UNL     1      22.434   1.937  49.641  0.00  0.00    +0.000 C 
ENDBRANCH  18  20
ENDBRANCH   1  18
BRANCH   7  21
ATOM     21  C   UNL     1      27.197   2.141  52.215  0.00  0.00    +0.000 C 
BRANCH  21  22
ATOM     22  O   UNL     1      27.259   3.090  51.146  0.00  0.00    +0.000 OA
ATOM     23  H   UNL     1      26.597   2.863  50.474  0.00  0.00    +0.000 HD
ENDBRANCH  21  22
BRANCH  21  24
ATOM     24  C   UNL     1      28.162   2.613  53.322  0.00  0.00    +0.000 C 
ATOM     25  C   UNL     1      29.105   1.561  53.881  0.00  0.00    +0.000 C 
ENDBRANCH  21  24
ENDBRANCH   7  21
BRANCH   8  26
ATOM     26  O   UNL     1      26.195  -0.169  53.817  0.00  0.00    +0.000 OA
BRANCH  26  27
ATOM     27  C   UNL     1      26.502  -1.256  52.929  0.00  0.00    +0.000 C 
ATOM     28  C   UNL     1      27.984  -1.602  52.977  0.00  0.00    +0.000 C 
ENDBRANCH  26  27
ENDBRANCH   8  26
TORSDOF 7
ENDMDL
MODEL 5
REMARK VINA RESULT:    -6.818      1.798      6.217
REMARK INTER + INTRA:         -10.506
REMARK INTER:                  -9.739
REMARK INTRA:                  -0.767
REMARK UNBOUND:                -1.097
REMARK  Name = 
REMARK  12 active torsions:
REMARK  status: ('A' for Active; 'I' for Inactive)
REMARK    1  A    between atoms: C_1  and  C_2
REMARK    2  A    between atoms: C_2  and  C_3
REMARK    3  A    between atoms: C_3  and  C_4
REMARK    4  A    between atoms: C_10  and  C_11
REMARK    5  A    between atoms: C_11  and  O_12
REMARK    6  A    between atoms: C_11  and  C_13
REMARK    7  A    between atoms: C_13  and  C_14
REMARK    8  A    between atoms: C_15  and  O_16
REMARK    9  A    between atoms: O_16  and  C_17
REMARK   10  A    between atoms: C_17  and  C_18
REMARK   11  A    between atoms: C_23  and  C_24
REMARK   12  A    between atoms: C_23  and  C_25
REMARK                            x       y       z     vdW  Elec       q    Type
REMARK                         _______ _______ _______ _____ _____    ______ ____
ROOT
ATOM      1  C   UNL     1      21.900   0.913  52.215  0.00  0.00    +0.000 A 
ATOM      2  C   UNL     1      21.680  -0.408  52.033  0.00  0.00    +0.000 A 
ATOM      3  C   UNL     1      22.193  -1.114  53.246  0.00  0.00    +0.000 A 
ATOM      4  O   UNL     1      21.608  -2.039  53.788  0.00  0.00    +0.000 OA
ATOM      5  O   UNL     1      23.457  -0.656  53.638  0.00  0.00    +0.000 OA
ATOM      6  C   UNL     1      24.147   0.377  52.931  0.00  0.00    +0.000 A 
ATOM      7  C   UNL     1      25.542   0.506  53.055  0.00  0.00    +0.000 A 
ATOM      8  C   UNL     1      26.144   1.422  52.157  0.00  0.00    +0.000 A 
ATOM      9  C   UNL     1      25.358   2.263  51.297  0.00  0.00    +0.000 A 
ATOM     10  C   UNL     1      23.952   2.173  51.308  0.00  0.00    +0.000 A 
ATOM     11  C   UNL     1      23.349   1.205  52.112  0.00  0.00    +0.000 A 
ATOM     12  O   UNL     1      23.129   2.977  50.562  0.00  0.00    +0.000 OA
ATOM     13  C   UNL     1      23.694   3.942  49.649  0.00  0.00    +0.000 C 
ATOM     14  C   UNL     1      23.159   3.584  48.255  0.00  0.00    +0.000 C 
ATOM     15  C   UNL     1      23.164   5.331  50.040  0.00  0.00    +0.000 C 
ATOM     16  C   UNL     1      25.201   3.989  49.618  0.00  0.00    +0.000 C 
ATOM     17  C   UNL     1      25.979   3.224  50.392  0.00  0.00    +0.000 C 
ENDROOT
BRANCH   1  18
ATOM     18  C   UNL     1      21.157   1.652  53.322  0.00  0.00    +0.000 C 
BRANCH  18  20
ATOM     19  C   UNL     1      19.692   2.797  51.570  0.00  0.00    +0.000 C 
ATOM     20  C   UNL     1      20.464   2.936  52.875  0.00  0.00    +0.000 C 
ENDBRANCH  18  20
ENDBRANCH   1  18
BRANCH   7  21
ATOM     21  C   UNL     1      26.335  -0.216  54.151  0.00  0.00    +0.000 C 
BRANCH  21  22
ATOM     22  O   UNL     1      25.425  -0.723  55.132  0.00  0.00    +0.000 OA
ATOM     23  H   UNL     1      25.019  -1.541  54.804  0.00  0.00    +0.000 HD
ENDBRANCH  21  22
BRANCH  21  24
ATOM     24  C   UNL     1      27.262  -1.374  53.726  0.00  0.00    +0.000 C 
ATOM     25  C   UNL     1      26.875  -2.109  52.453  0.00  0.00    +0.000 C 
ENDBRANCH  21  24
ENDBRANCH   7  21
BRANCH   8  26
ATOM     26  O   UNL     1      27.507   1.657  52.147  0.00  0.00    +0.000 OA
BRANCH  26  27
ATOM     27  C   UNL     1      27.998   2.474  53.222  0.00  0.00    +0.000 C 
ATOM     28  C   UNL     1      29.189   1.819  53.910  0.00  0.00    +0.000 C 
ENDBRANCH  26  27
ENDBRANCH   8  26
TORSDOF 7
ENDMDL
MODEL 6
REMARK VINA RESULT:    -6.782      2.827      5.804
REMARK INTER + INTRA:         -10.456
REMARK INTER:                  -9.260
REMARK INTRA:                  -1.197
REMARK UNBOUND:                -1.097
REMARK  Name = 
REMARK  12 active torsions:
REMARK  status: ('A' for Active; 'I' for Inactive)
REMARK    1  A    between atoms: C_1  and  C_2
REMARK    2  A    between atoms: C_2  and  C_3
REMARK    3  A    between atoms: C_3  and  C_4
REMARK    4  A    between atoms: C_10  and  C_11
REMARK    5  A    between atoms: C_11  and  O_12
REMARK    6  A    between atoms: C_11  and  C_13
REMARK    7  A    between atoms: C_13  and  C_14
REMARK    8  A    between atoms: C_15  and  O_16
REMARK    9  A    between atoms: O_16  and  C_17
REMARK   10  A    between atoms: C_17  and  C_18
REMARK   11  A    between atoms: C_23  and  C_24
REMARK   12  A    between atoms: C_23  and  C_25
REMARK                            x       y       z     vdW  Elec       q    Type
REMARK                         _______ _______ _______ _____ _____    ______ ____
ROOT
ATOM      1  C   UNL     1      25.789   2.782  50.478  0.00  0.00    +0.000 A 
ATOM      2  C   UNL     1      26.226   2.997  49.218  0.00  0.00    +0.000 A 
ATOM      3  C   UNL     1      26.865   4.348  49.194  0.00  0.00    +0.000 A 
ATOM      4  O   UNL     1      27.904   4.595  48.604  0.00  0.00    +0.000 OA
ATOM      5  O   UNL     1      26.093   5.316  49.848  0.00  0.00    +0.000 OA
ATOM      6  C   UNL     1      24.839   5.006  50.461  0.00  0.00    +0.000 A 
ATOM      7  C   UNL     1      23.903   6.026  50.707  0.00  0.00    +0.000 A 
ATOM      8  C   UNL     1      22.623   5.582  51.122  0.00  0.00    +0.000 A 
ATOM      9  C   UNL     1      22.363   4.199  51.416  0.00  0.00    +0.000 A 
ATOM     10  C   UNL     1      23.383   3.239  51.269  0.00  0.00    +0.000 A 
ATOM     11  C   UNL     1      24.618   3.645  50.763  0.00  0.00    +0.000 A 
ATOM     12  O   UNL     1      23.234   1.912  51.582  0.00  0.00    +0.000 OA
ATOM     13  C   UNL     1      21.956   1.413  52.031  0.00  0.00    +0.000 C 
ATOM     14  C   UNL     1      21.539   0.326  51.032  0.00  0.00    +0.000 C 
ATOM     15  C   UNL     1      22.158   0.766  53.411  0.00  0.00    +0.000 C 
ATOM     16  C   UNL     1      20.865   2.449  52.138  0.00  0.00    +0.000 C 
ATOM     17  C   UNL     1      21.052   3.747  51.869  0.00  0.00    +0.000 C 
ENDROOT
BRANCH   1  18
ATOM     18  C   UNL     1      26.800   2.650  51.610  0.00  0.00    +0.000 C 
BRANCH  18  20
ATOM     19  C   UNL     1      25.980   1.055  53.429  0.00  0.00    +0.000 C 
ATOM     20  C   UNL     1      26.889   1.256  52.224  0.00  0.00    +0.000 C 
ENDBRANCH  18  20
ENDBRANCH   1  18
BRANCH   7  21
ATOM     21  C   UNL     1      24.273   7.512  50.628  0.00  0.00    +0.000 C 
BRANCH  21  22
ATOM     22  O   UNL     1      25.612   7.687  51.101  0.00  0.00    +0.000 OA
ATOM     23  H   UNL     1      25.622   7.634  52.069  0.00  0.00    +0.000 HD
ENDBRANCH  21  22
BRANCH  21  24
ATOM     24  C   UNL     1      24.162   8.212  49.258  0.00  0.00    +0.000 C 
ATOM     25  C   UNL     1      25.469   8.454  48.521  0.00  0.00    +0.000 C 
ENDBRANCH  21  24
ENDBRANCH   7  21
BRANCH   8  26
ATOM     26  O   UNL     1      21.589   6.459  51.396  0.00  0.00    +0.000 OA
BRANCH  26  27
ATOM     27  C   UNL     1      20.757   6.796  50.275  0.00  0.00    +0.000 C 
ATOM     28  C   UNL     1      20.490   8.295  50.219  0.00  0.00    +0.000 C 
ENDBRANCH  26  27
ENDBRANCH   8  26
TORSDOF 7
ENDMDL
MODEL 7
REMARK VINA RESULT:    -6.725      1.598      5.375
REMARK INTER + INTRA:         -10.377
REMARK INTER:                  -9.303
REMARK INTRA:                  -1.074
REMARK UNBOUND:                -1.097
REMARK  Name = 
REMARK  12 active torsions:
REMARK  status: ('A' for Active; 'I' for Inactive)
REMARK    1  A    between atoms: C_1  and  C_2
REMARK    2  A    between atoms: C_2  and  C_3
REMARK    3  A    between atoms: C_3  and  C_4
REMARK    4  A    between atoms: C_10  and  C_11
REMARK    5  A    between atoms: C_11  and  O_12
REMARK    6  A    between atoms: C_11  and  C_13
REMARK    7  A    between atoms: C_13  and  C_14
REMARK    8  A    between atoms: C_15  and  O_16
REMARK    9  A    between atoms: O_16  and  C_17
REMARK   10  A    between atoms: C_17  and  C_18
REMARK   11  A    between atoms: C_23  and  C_24
REMARK   12  A    between atoms: C_23  and  C_25
REMARK                            x       y       z     vdW  Elec       q    Type
REMARK                         _______ _______ _______ _____ _____    ______ ____
ROOT
ATOM      1  C   UNL     1      18.913   1.335  50.552  0.00  0.00    +0.000 A 
ATOM      2  C   UNL     1      18.466   0.060  50.519  0.00  0.00    +0.000 A 
ATOM      3  C   UNL     1      18.225  -0.363  51.931  0.00  0.00    +0.000 A 
ATOM      4  O   UNL     1      17.256  -1.014  52.287  0.00  0.00    +0.000 OA
ATOM      5  O   UNL     1      19.278  -0.006  52.784  0.00  0.00    +0.000 OA
ATOM      6  C   UNL     1      20.436   0.689  52.316  0.00  0.00    +0.000 A 
ATOM      7  C   UNL     1      21.632   0.642  53.054  0.00  0.00    +0.000 A 
ATOM      8  C   UNL     1      22.765   1.187  52.400  0.00  0.00    +0.000 A 
ATOM      9  C   UNL     1      22.653   1.873  51.142  0.00  0.00    +0.000 A 
ATOM     10  C   UNL     1      21.400   1.995  50.510  0.00  0.00    +0.000 A 
ATOM     11  C   UNL     1      20.293   1.375  51.091  0.00  0.00    +0.000 A 
ATOM     12  O   UNL     1      21.197   2.681  49.340  0.00  0.00    +0.000 OA
ATOM     13  C   UNL     1      22.316   3.274  48.646  0.00  0.00    +0.000 C 
ATOM     14  C   UNL     1      22.346   2.639  47.249  0.00  0.00    +0.000 C 
ATOM     15  C   UNL     1      22.038   4.780  48.499  0.00  0.00    +0.000 C 
ATOM     16  C   UNL     1      23.655   3.092  49.316  0.00  0.00    +0.000 C 
ATOM     17  C   UNL     1      23.815   2.456  50.482  0.00  0.00    +0.000 C 
ENDROOT
BRANCH   1  18
ATOM     18  C   UNL     1      17.985   2.442  51.038  0.00  0.00    +0.000 C 
BRANCH  18  20
ATOM     19  C   UNL     1      18.525   4.769  50.134  0.00  0.00    +0.000 C 
ATOM     20  C   UNL     1      18.670   3.783  51.284  0.00  0.00    +0.000 C 
ENDBRANCH  18  20
ENDBRANCH   1  18
BRANCH   7  21
ATOM     21  C   UNL     1      21.682   0.131  54.499  0.00  0.00    +0.000 C 
BRANCH  21  22
ATOM     22  O   UNL     1      20.457   0.466  55.157  0.00  0.00    +0.000 OA
ATOM     23  H   UNL     1      20.083   1.266  54.756  0.00  0.00    +0.000 HD
ENDBRANCH  21  22
BRANCH  21  24
ATOM     24  C   UNL     1      21.942  -1.373  54.723  0.00  0.00    +0.000 C 
ATOM     25  C   UNL     1      23.151  -1.723  55.575  0.00  0.00    +0.000 C 
ENDBRANCH  21  24
ENDBRANCH   7  21
BRANCH   8  26
ATOM     26  O   UNL     1      24.017   1.210  52.987  0.00  0.00    +0.000 OA
BRANCH  26  27
ATOM     27  C   UNL     1      24.796   0.015  52.820  0.00  0.00    +0.000 C 
ATOM     28  C   UNL     1      26.208   0.341  52.350  0.00  0.00    +0.000 C 
ENDBRANCH  26  27
ENDBRANCH   8  26
TORSDOF 7
ENDMDL
MODEL 8
REMARK VINA RESULT:    -6.567      1.887      5.202
REMARK INTER + INTRA:         -10.159
REMARK INTER:                  -9.858
REMARK INTRA:                  -0.302
REMARK UNBOUND:                -1.097
REMARK  Name = 
REMARK  12 active torsions:
REMARK  status: ('A' for Active; 'I' for Inactive)
REMARK    1  A    between atoms: C_1  and  C_2
REMARK    2  A    between atoms: C_2  and  C_3
REMARK    3  A    between atoms: C_3  and  C_4
REMARK    4  A    between atoms: C_10  and  C_11
REMARK    5  A    between atoms: C_11  and  O_12
REMARK    6  A    between atoms: C_11  and  C_13
REMARK    7  A    between atoms: C_13  and  C_14
REMARK    8  A    between atoms: C_15  and  O_16
REMARK    9  A    between atoms: O_16  and  C_17
REMARK   10  A    between atoms: C_17  and  C_18
REMARK   11  A    between atoms: C_23  and  C_24
REMARK   12  A    between atoms: C_23  and  C_25
REMARK                            x       y       z     vdW  Elec       q    Type
REMARK                         _______ _______ _______ _____ _____    ______ ____
ROOT
ATOM      1  C   UNL     1      21.475   3.208  51.735  0.00  0.00    +0.000 A 
ATOM      2  C   UNL     1      21.459   4.491  52.159  0.00  0.00    +0.000 A 
ATOM      3  C   UNL     1      22.155   5.311  51.122  0.00  0.00    +0.000 A 
ATOM      4  O   UNL     1      21.762   6.405  50.749  0.00  0.00    +0.000 OA
ATOM      5  O   UNL     1      23.352   4.725  50.692  0.00  0.00    +0.000 OA
ATOM      6  C   UNL     1      23.820   3.477  51.210  0.00  0.00    +0.000 A 
ATOM      7  C   UNL     1      25.181   3.139  51.109  0.00  0.00    +0.000 A 
ATOM      8  C   UNL     1      25.570   1.985  51.834  0.00  0.00    +0.000 A 
ATOM      9  C   UNL     1      24.606   1.146  52.490  0.00  0.00    +0.000 A 
ATOM     10  C   UNL     1      23.236   1.473  52.450  0.00  0.00    +0.000 A 
ATOM     11  C   UNL     1      22.849   2.661  51.828  0.00  0.00    +0.000 A 
ATOM     12  O   UNL     1      22.249   0.698  53.001  0.00  0.00    +0.000 OA
ATOM     13  C   UNL     1      22.591  -0.500  53.730  0.00  0.00    +0.000 C 
ATOM     14  C   UNL     1      22.033  -0.319  55.148  0.00  0.00    +0.000 C 
ATOM     15  C   UNL     1      21.872  -1.684  53.062  0.00  0.00    +0.000 C 
ATOM     16  C   UNL     1      24.066  -0.808  53.801  0.00  0.00    +0.000 C 
ATOM     17  C   UNL     1      25.005  -0.056  53.214  0.00  0.00    +0.000 C 
ENDROOT
BRANCH   1  18
ATOM     18  C   UNL     1      20.696   2.822  50.483  0.00  0.00    +0.000 C 
BRANCH  18  20
ATOM     19  C   UNL     1      21.597   1.363  48.590  0.00  0.00    +0.000 C 
ATOM     20  C   UNL     1      20.968   1.409  49.976  0.00  0.00    +0.000 C 
ENDBRANCH  18  20
ENDBRANCH   1  18
BRANCH   7  21
ATOM     21  C   UNL     1      26.149   3.905  50.199  0.00  0.00    +0.000 C 
BRANCH  21  22
ATOM     22  O   UNL     1      26.940   2.969  49.462  0.00  0.00    +0.000 OA
ATOM     23  H   UNL     1      27.820   3.346  49.300  0.00  0.00    +0.000 HD
ENDBRANCH  21  22
BRANCH  21  24
ATOM     24  C   UNL     1      25.551   4.912  49.195  0.00  0.00    +0.000 C 
ATOM     25  C   UNL     1      26.461   6.052  48.769  0.00  0.00    +0.000 C 
ENDBRANCH  21  24
ENDBRANCH   7  21
BRANCH   8  26
ATOM     26  O   UNL     1      26.875   1.524  51.844  0.00  0.00    +0.000 OA
BRANCH  26  27
ATOM     27  C   UNL     1      27.732   2.130  52.823  0.00  0.00    +0.000 C 
ATOM     28  C   UNL     1      28.510   1.076  53.602  0.00  0.00    +0.000 C 
ENDBRANCH  26  27
ENDBRANCH   8  26
TORSDOF 7
ENDMDL
MODEL 9
REMARK VINA RESULT:    -6.452      1.306      5.173
REMARK INTER + INTRA:         -10.001
REMARK INTER:                  -9.113
REMARK INTRA:                  -0.888
REMARK UNBOUND:                -1.097
REMARK  Name = 
REMARK  12 active torsions:
REMARK  status: ('A' for Active; 'I' for Inactive)
REMARK    1  A    between atoms: C_1  and  C_2
REMARK    2  A    between atoms: C_2  and  C_3
REMARK    3  A    between atoms: C_3  and  C_4
REMARK    4  A    between atoms: C_10  and  C_11
REMARK    5  A    between atoms: C_11  and  O_12
REMARK    6  A    between atoms: C_11  and  C_13
REMARK    7  A    between atoms: C_13  and  C_14
REMARK    8  A    between atoms: C_15  and  O_16
REMARK    9  A    between atoms: O_16  and  C_17
REMARK   10  A    between atoms: C_17  and  C_18
REMARK   11  A    between atoms: C_23  and  C_24
REMARK   12  A    between atoms: C_23  and  C_25
REMARK                            x       y       z     vdW  Elec       q    Type
REMARK                         _______ _______ _______ _____ _____    ______ ____
ROOT
ATOM      1  C   UNL     1      23.461   3.447  49.559  0.00  0.00    +0.000 A 
ATOM      2  C   UNL     1      24.339   4.410  49.916  0.00  0.00    +0.000 A 
ATOM      3  C   UNL     1      25.661   3.748  50.129  0.00  0.00    +0.000 A 
ATOM      4  O   UNL     1      26.723   4.220  49.753  0.00  0.00    +0.000 OA
ATOM      5  O   UNL     1      25.556   2.574  50.885  0.00  0.00    +0.000 OA
ATOM      6  C   UNL     1      24.303   2.092  51.377  0.00  0.00    +0.000 A 
ATOM      7  C   UNL     1      24.268   1.202  52.465  0.00  0.00    +0.000 A 
ATOM      8  C   UNL     1      22.979   0.955  52.999  0.00  0.00    +0.000 A 
ATOM      9  C   UNL     1      21.791   1.460  52.367  0.00  0.00    +0.000 A 
ATOM     10  C   UNL     1      21.886   2.247  51.202  0.00  0.00    +0.000 A 
ATOM     11  C   UNL     1      23.153   2.584  50.723  0.00  0.00    +0.000 A 
ATOM     12  O   UNL     1      20.802   2.719  50.508  0.00  0.00    +0.000 OA
ATOM     13  C   UNL     1      19.467   2.475  50.998  0.00  0.00    +0.000 C 
ATOM     14  C   UNL     1      18.826   3.853  51.218  0.00  0.00    +0.000 C 
ATOM     15  C   UNL     1      18.686   1.736  49.899  0.00  0.00    +0.000 C 
ATOM     16  C   UNL     1      19.388   1.670  52.272  0.00  0.00    +0.000 C 
ATOM     17  C   UNL     1      20.463   1.184  52.903  0.00  0.00    +0.000 C 
ENDROOT
BRANCH   1  18
ATOM     18  C   UNL     1      23.644   2.720  48.232  0.00  0.00    +0.000 C 
BRANCH  18  20
ATOM     19  C   UNL     1      21.464   3.409  47.093  0.00  0.00    +0.000 C 
ATOM     20  C   UNL     1      22.346   2.264  47.572  0.00  0.00    +0.000 C 
ENDBRANCH  18  20
ENDBRANCH   1  18
BRANCH   7  21
ATOM     21  C   UNL     1      25.521   0.476  52.968  0.00  0.00    +0.000 C 
BRANCH  21  22
ATOM     22  O   UNL     1      26.375   0.189  51.857  0.00  0.00    +0.000 OA
ATOM     23  H   UNL     1      25.956  -0.480  51.292  0.00  0.00    +0.000 HD
ENDBRANCH  21  22
BRANCH  21  24
ATOM     24  C   UNL     1      26.373   1.173  54.049  0.00  0.00    +0.000 C 
ATOM     25  C   UNL     1      27.641   0.449  54.472  0.00  0.00    +0.000 C 
ENDBRANCH  21  24
ENDBRANCH   7  21
BRANCH   8  26
ATOM     26  O   UNL     1      22.774   0.110  54.075  0.00  0.00    +0.000 OA
BRANCH  26  27
ATOM     27  C   UNL     1      22.550  -1.268  53.739  0.00  0.00    +0.000 C 
ATOM     28  C   UNL     1      21.310  -1.810  54.439  0.00  0.00    +0.000 C 
ENDBRANCH  26  27
ENDBRANCH   8  26
TORSDOF 7
ENDMDL
