MODEL 1
REMARK VINA RESULT:    -7.538      0.000      0.000
REMARK INTER + INTRA:          -9.623
REMARK INTER:                  -9.301
REMARK INTRA:                  -0.322
REMARK UNBOUND:                -0.322
REMARK  Name = 
REMARK  6 active torsions:
REMARK  status: ('A' for Active; 'I' for Inactive)
REMARK    1  A    between atoms: C_1  and  N_2
REMARK    2  A    between atoms: N_2  and  C_3
REMARK    3  A    between atoms: N_2  and  C_4
REMARK    4  A    between atoms: C_9  and  S_10
REMARK    5  A    between atoms: S_10  and  N_13
REMARK    6  A    between atoms: N_13  and  C_14
REMARK                            x       y       z     vdW  Elec       q    Type
REMARK                         _______ _______ _______ _____ _____    ______ ____
ROOT
ATOM      1  C   UNL     1      25.383   0.009  53.149  0.00  0.00    +0.000 A 
ATOM      2  C   UNL     1      25.585   0.958  52.125  0.00  0.00    +0.000 A 
ATOM      3  C   UNL     1      24.555   1.750  51.642  0.00  0.00    +0.000 A 
ATOM      4  C   UNL     1      23.258   1.523  52.072  0.00  0.00    +0.000 A 
ATOM      5  C   UNL     1      22.940   0.484  52.969  0.00  0.00    +0.000 A 
ATOM      6  C   UNL     1      21.603   0.146  53.323  0.00  0.00    +0.000 A 
ATOM      7  C   UNL     1      21.335  -0.713  54.395  0.00  0.00    +0.000 A 
ATOM      8  C   UNL     1      22.384  -1.278  55.095  0.00  0.00    +0.000 A 
ATOM      9  C   UNL     1      23.700  -1.047  54.687  0.00  0.00    +0.000 A 
ATOM     10  C   UNL     1      24.029  -0.211  53.591  0.00  0.00    +0.000 A 
ENDROOT
BRANCH   1  12
ATOM     11  C   UNL     1      27.270   0.166  54.717  0.00  0.00    +0.000 C 
ATOM     12  N   UNL     1      26.508  -0.624  53.742  0.00  0.00    +0.000 N 
ATOM     13  C   UNL     1      27.340  -1.459  52.869  0.00  0.00    +0.000 C 
ENDBRANCH   1  12
BRANCH   6  14
ATOM     14  S   UNL     1      20.179   0.779  52.429  0.00  0.00    +0.000 S 
ATOM     15  O   UNL     1      20.503   0.789  51.014  0.00  0.00    +0.000 OA
ATOM     16  O   UNL     1      19.021   0.065  52.909  0.00  0.00    +0.000 OA
BRANCH  14  17
ATOM     17  N   UNL     1      20.009   2.392  52.907  0.00  0.00    +0.000 N 
ATOM     18  H   UNL     1      20.061   2.657  53.854  0.00  0.00    +0.000 HD
BRANCH  17  19
ATOM     19  C   UNL     1      19.792   3.341  51.889  0.00  0.00    +0.000 A 
ATOM     20  C   UNL     1      18.571   3.537  51.254  0.00  0.00    +0.000 A 
ATOM     21  N   UNL     1      18.380   4.510  50.325  0.00  0.00    +0.000 NA
ATOM     22  C   UNL     1      19.468   5.263  50.046  0.00  0.00    +0.000 A 
ATOM     23 BR   UNL     1      19.314   6.635  48.752  0.00  0.00    +0.000 Br
ATOM     24  C   UNL     1      20.686   5.054  50.684  0.00  0.00    +0.000 A 
ATOM     25  N   UNL     1      20.876   4.090  51.627  0.00  0.00    +0.000 NA
ENDBRANCH  17  19
ENDBRANCH  14  17
ENDBRANCH   6  14
TORSDOF 4
ENDMDL
MODEL 2
REMARK VINA RESULT:    -7.514      5.000      8.034
REMARK INTER + INTRA:          -9.593
REMARK INTER:                  -9.540
REMARK INTRA:                  -0.054
REMARK UNBOUND:                -0.322
REMARK  Name = 
REMARK  6 active torsions:
REMARK  status: ('A' for Active; 'I' for Inactive)
REMARK    1  A    between atoms: C_1  and  N_2
REMARK    2  A    between atoms: N_2  and  C_3
REMARK    3  A    between atoms: N_2  and  C_4
REMARK    4  A    between atoms: C_9  and  S_10
REMARK    5  A    between atoms: S_10  and  N_13
REMARK    6  A    between atoms: N_13  and  C_14
REMARK                            x       y       z     vdW  Elec       q    Type
REMARK                         _______ _______ _______ _____ _____    ______ ____
ROOT
ATOM      1  C   UNL     1      26.247   6.431  49.084  0.00  0.00    +0.000 A 
ATOM      2  C   UNL     1      27.236   5.492  48.725  0.00  0.00    +0.000 A 
ATOM      3  C   UNL     1      27.132   4.151  49.058  0.00  0.00    +0.000 A 
ATOM      4  C   UNL     1      26.101   3.726  49.878  0.00  0.00    +0.000 A 
ATOM      5  C   UNL     1      25.160   4.626  50.420  0.00  0.00    +0.000 A 
ATOM      6  C   UNL     1      24.173   4.238  51.369  0.00  0.00    +0.000 A 
ATOM      7  C   UNL     1      23.109   5.088  51.693  0.00  0.00    +0.000 A 
ATOM      8  C   UNL     1      23.037   6.341  51.116  0.00  0.00    +0.000 A 
ATOM      9  C   UNL     1      24.060   6.780  50.271  0.00  0.00    +0.000 A 
ATOM     10  C   UNL     1      25.175   5.974  49.933  0.00  0.00    +0.000 A 
ENDROOT
BRANCH   1  12
ATOM     11  C   UNL     1      25.895   7.899  47.143  0.00  0.00    +0.000 C 
ATOM     12  N   UNL     1      26.305   7.744  48.544  0.00  0.00    +0.000 N 
ATOM     13  C   UNL     1      27.457   8.570  48.924  0.00  0.00    +0.000 C 
ENDBRANCH   1  12
BRANCH   6  14
ATOM     14  S   UNL     1      24.221   2.656  52.220  0.00  0.00    +0.000 S 
ATOM     15  O   UNL     1      22.911   2.415  52.799  0.00  0.00    +0.000 OA
ATOM     16  O   UNL     1      24.807   1.700  51.312  0.00  0.00    +0.000 OA
BRANCH  14  17
ATOM     17  N   UNL     1      25.300   2.854  53.507  0.00  0.00    +0.000 N 
ATOM     18  H   UNL     1      25.216   3.604  54.139  0.00  0.00    +0.000 HD
BRANCH  17  19
ATOM     19  C   UNL     1      26.323   1.894  53.636  0.00  0.00    +0.000 A 
ATOM     20  C   UNL     1      26.116   0.582  54.043  0.00  0.00    +0.000 A 
ATOM     21  N   UNL     1      27.117  -0.335  54.087  0.00  0.00    +0.000 NA
ATOM     22  C   UNL     1      28.336   0.123  53.726  0.00  0.00    +0.000 A 
ATOM     23 BR   UNL     1      29.804  -1.070  53.770  0.00  0.00    +0.000 Br
ATOM     24  C   UNL     1      28.533   1.440  53.325  0.00  0.00    +0.000 A 
ATOM     25  N   UNL     1      27.528   2.358  53.264  0.00  0.00    +0.000 NA
ENDBRANCH  17  19
ENDBRANCH  14  17
ENDBRANCH   6  14
TORSDOF 4
ENDMDL
MODEL 3
REMARK VINA RESULT:    -7.241      3.009      4.213
REMARK INTER + INTRA:          -9.256
REMARK INTER:                  -8.997
REMARK INTRA:                  -0.259
REMARK UNBOUND:                -0.322
REMARK  Name = 
REMARK  6 active torsions:
REMARK  status: ('A' for Active; 'I' for Inactive)
REMARK    1  A    between atoms: C_1  and  N_2
REMARK    2  A    between atoms: N_2  and  C_3
REMARK    3  A    between atoms: N_2  and  C_4
REMARK    4  A    between atoms: C_9  and  S_10
REMARK    5  A    between atoms: S_10  and  N_13
REMARK    6  A    between atoms: N_13  and  C_14
REMARK                            x       y       z     vdW  Elec       q    Type
REMARK                         _______ _______ _______ _____ _____    ______ ____
ROOT
ATOM      1  C   UNL     1      26.568   0.169  53.486  0.00  0.00    +0.000 A 
ATOM      2  C   UNL     1      25.643  -0.610  54.212  0.00  0.00    +0.000 A 
ATOM      3  C   UNL     1      24.299  -0.660  53.873  0.00  0.00    +0.000 A 
ATOM      4  C   UNL     1      23.811   0.173  52.881  0.00  0.00    +0.000 A 
ATOM      5  C   UNL     1      24.635   1.105  52.217  0.00  0.00    +0.000 A 
ATOM      6  C   UNL     1      24.133   2.061  51.290  0.00  0.00    +0.000 A 
ATOM      7  C   UNL     1      24.998   2.795  50.470  0.00  0.00    +0.000 A 
ATOM      8  C   UNL     1      26.364   2.620  50.590  0.00  0.00    +0.000 A 
ATOM      9  C   UNL     1      26.875   1.770  51.574  0.00  0.00    +0.000 A 
ATOM     10  C   UNL     1      26.047   1.026  52.452  0.00  0.00    +0.000 A 
ENDROOT
BRANCH   1  12
ATOM     11  C   UNL     1      28.598  -1.197  53.245  0.00  0.00    +0.000 C 
ATOM     12  N   UNL     1      27.956   0.023  53.749  0.00  0.00    +0.000 N 
ATOM     13  C   UNL     1      28.432   0.444  55.072  0.00  0.00    +0.000 C 
ENDBRANCH   1  12
BRANCH   6  14
ATOM     14  S   UNL     1      22.379   2.404  51.112  0.00  0.00    +0.000 S 
ATOM     15  O   UNL     1      21.835   2.673  52.431  0.00  0.00    +0.000 OA
ATOM     16  O   UNL     1      22.237   3.372  50.051  0.00  0.00    +0.000 OA
BRANCH  14  17
ATOM     17  N   UNL     1      21.676   0.963  50.574  0.00  0.00    +0.000 N 
ATOM     18  H   UNL     1      22.178   0.318  50.025  0.00  0.00    +0.000 HD
BRANCH  17  19
ATOM     19  C   UNL     1      20.338   0.726  50.947  0.00  0.00    +0.000 A 
ATOM     20  C   UNL     1      19.237   1.124  50.199  0.00  0.00    +0.000 A 
ATOM     21  N   UNL     1      17.963   0.816  50.555  0.00  0.00    +0.000 NA
ATOM     22  C   UNL     1      17.839   0.111  51.701  0.00  0.00    +0.000 A 
ATOM     23 BR   UNL     1      16.104  -0.355  52.298  0.00  0.00    +0.000 Br
ATOM     24  C   UNL     1      18.948  -0.278  52.445  0.00  0.00    +0.000 A 
ATOM     25  N   UNL     1      20.227   0.016  52.082  0.00  0.00    +0.000 NA
ENDBRANCH  17  19
ENDBRANCH  14  17
ENDBRANCH   6  14
TORSDOF 4
ENDMDL
MODEL 4
REMARK VINA RESULT:    -7.240      5.471      7.867
REMARK INTER + INTRA:          -9.254
REMARK INTER:                  -8.775
REMARK INTRA:                  -0.479
REMARK UNBOUND:                -0.322
REMARK  Name = 
REMARK  6 active torsions:
REMARK  status: ('A' for Active; 'I' for Inactive)
REMARK    1  A    between atoms: C_1  and  N_2
REMARK    2  A    between atoms: N_2  and  C_3
REMARK    3  A    between atoms: N_2  and  C_4
REMARK    4  A    between atoms: C_9  and  S_10
REMARK    5  A    between atoms: S_10  and  N_13
REMARK    6  A    between atoms: N_13  and  C_14
REMARK                            x       y       z     vdW  Elec       q    Type
REMARK                         _______ _______ _______ _____ _____    ______ ____
ROOT
ATOM      1  C   UNL     1      26.441   8.173  48.878  0.00  0.00    +0.000 A 
ATOM      2  C   UNL     1      25.443   8.949  49.502  0.00  0.00    +0.000 A 
ATOM      3  C   UNL     1      24.541   8.402  50.402  0.00  0.00    +0.000 A 
ATOM      4  C   UNL     1      24.522   7.033  50.605  0.00  0.00    +0.000 A 
ATOM      5  C   UNL     1      25.375   6.161  49.897  0.00  0.00    +0.000 A 
ATOM      6  C   UNL     1      25.284   4.744  49.989  0.00  0.00    +0.000 A 
ATOM      7  C   UNL     1      26.294   3.921  49.476  0.00  0.00    +0.000 A 
ATOM      8  C   UNL     1      27.376   4.490  48.832  0.00  0.00    +0.000 A 
ATOM      9  C   UNL     1      27.422   5.873  48.633  0.00  0.00    +0.000 A 
ATOM     10  C   UNL     1      26.413   6.750  49.104  0.00  0.00    +0.000 A 
ENDROOT
BRANCH   1  12
ATOM     11  C   UNL     1      28.526   9.477  48.893  0.00  0.00    +0.000 C 
ATOM     12  N   UNL     1      27.459   8.822  48.128  0.00  0.00    +0.000 N 
ATOM     13  C   UNL     1      27.036   9.566  46.936  0.00  0.00    +0.000 C 
ENDBRANCH   1  12
BRANCH   6  14
ATOM     14  S   UNL     1      23.884   3.913  50.748  0.00  0.00    +0.000 S 
ATOM     15  O   UNL     1      23.897   4.213  52.169  0.00  0.00    +0.000 OA
ATOM     16  O   UNL     1      22.722   4.214  49.947  0.00  0.00    +0.000 OA
BRANCH  14  17
ATOM     17  N   UNL     1      24.186   2.256  50.591  0.00  0.00    +0.000 N 
ATOM     18  H   UNL     1      24.745   1.901  49.863  0.00  0.00    +0.000 HD
BRANCH  17  19
ATOM     19  C   UNL     1      23.602   1.407  51.552  0.00  0.00    +0.000 A 
ATOM     20  C   UNL     1      22.254   1.071  51.580  0.00  0.00    +0.000 A 
ATOM     21  N   UNL     1      21.740   0.193  52.479  0.00  0.00    +0.000 NA
ATOM     22  C   UNL     1      22.629  -0.318  53.360  0.00  0.00    +0.000 A 
ATOM     23 BR   UNL     1      22.011  -1.539  54.668  0.00  0.00    +0.000 Br
ATOM     24  C   UNL     1      23.975   0.029  53.326  0.00  0.00    +0.000 A 
ATOM     25  N   UNL     1      24.496   0.897  52.415  0.00  0.00    +0.000 NA
ENDBRANCH  17  19
ENDBRANCH  14  17
ENDBRANCH   6  14
TORSDOF 4
ENDMDL
MODEL 5
REMARK VINA RESULT:    -7.157      5.120      8.328
REMARK INTER + INTRA:          -9.152
REMARK INTER:                  -9.254
REMARK INTRA:                   0.101
REMARK UNBOUND:                -0.322
REMARK  Name = 
REMARK  6 active torsions:
REMARK  status: ('A' for Active; 'I' for Inactive)
REMARK    1  A    between atoms: C_1  and  N_2
REMARK    2  A    between atoms: N_2  and  C_3
REMARK    3  A    between atoms: N_2  and  C_4
REMARK    4  A    between atoms: C_9  and  S_10
REMARK    5  A    between atoms: S_10  and  N_13
REMARK    6  A    between atoms: N_13  and  C_14
REMARK                            x       y       z     vdW  Elec       q    Type
REMARK                         _______ _______ _______ _____ _____    ______ ____
ROOT
ATOM      1  C   UNL     1      25.364   7.541  49.119  0.00  0.00    +0.000 A 
ATOM      2  C   UNL     1      24.363   8.144  49.907  0.00  0.00    +0.000 A 
ATOM      3  C   UNL     1      23.809   7.507  51.007  0.00  0.00    +0.000 A 
ATOM      4  C   UNL     1      24.142   6.190  51.275  0.00  0.00    +0.000 A 
ATOM      5  C   UNL     1      25.009   5.455  50.442  0.00  0.00    +0.000 A 
ATOM      6  C   UNL     1      25.263   4.066  50.619  0.00  0.00    +0.000 A 
ATOM      7  C   UNL     1      26.309   3.430  49.940  0.00  0.00    +0.000 A 
ATOM      8  C   UNL     1      27.082   4.151  49.049  0.00  0.00    +0.000 A 
ATOM      9  C   UNL     1      26.771   5.487  48.779  0.00  0.00    +0.000 A 
ATOM     10  C   UNL     1      25.706   6.172  49.414  0.00  0.00    +0.000 A 
ENDROOT
BRANCH   1  12
ATOM     11  C   UNL     1      27.059   9.250  48.617  0.00  0.00    +0.000 C 
ATOM     12  N   UNL     1      26.036   8.315  48.135  0.00  0.00    +0.000 N 
ATOM     13  C   UNL     1      25.224   8.836  47.030  0.00  0.00    +0.000 C 
ENDBRANCH   1  12
BRANCH   6  14
ATOM     14  S   UNL     1      24.270   3.034  51.704  0.00  0.00    +0.000 S 
ATOM     15  O   UNL     1      23.007   3.710  51.938  0.00  0.00    +0.000 OA
ATOM     16  O   UNL     1      24.296   1.696  51.164  0.00  0.00    +0.000 OA
BRANCH  14  17
ATOM     17  N   UNL     1      25.088   2.994  53.184  0.00  0.00    +0.000 N 
ATOM     18  H   UNL     1      24.896   3.645  53.897  0.00  0.00    +0.000 HD
BRANCH  17  19
ATOM     19  C   UNL     1      26.057   1.984  53.351  0.00  0.00    +0.000 A 
ATOM     20  C   UNL     1      25.760   0.662  53.658  0.00  0.00    +0.000 A 
ATOM     21  N   UNL     1      26.716  -0.300  53.742  0.00  0.00    +0.000 NA
ATOM     22  C   UNL     1      27.981   0.124  53.525  0.00  0.00    +0.000 A 
ATOM     23 BR   UNL     1      29.391  -1.134  53.636  0.00  0.00    +0.000 Br
ATOM     24  C   UNL     1      28.267   1.451  53.223  0.00  0.00    +0.000 A 
ATOM     25  N   UNL     1      27.309   2.414  53.123  0.00  0.00    +0.000 NA
ENDBRANCH  17  19
ENDBRANCH  14  17
ENDBRANCH   6  14
TORSDOF 4
ENDMDL
MODEL 6
REMARK VINA RESULT:    -7.099      4.071      7.038
REMARK INTER + INTRA:          -9.081
REMARK INTER:                  -9.332
REMARK INTRA:                   0.251
REMARK UNBOUND:                -0.322
REMARK  Name = 
REMARK  6 active torsions:
REMARK  status: ('A' for Active; 'I' for Inactive)
REMARK    1  A    between atoms: C_1  and  N_2
REMARK    2  A    between atoms: N_2  and  C_3
REMARK    3  A    between atoms: N_2  and  C_4
REMARK    4  A    between atoms: C_9  and  S_10
REMARK    5  A    between atoms: S_10  and  N_13
REMARK    6  A    between atoms: N_13  and  C_14
REMARK                            x       y       z     vdW  Elec       q    Type
REMARK                         _______ _______ _______ _____ _____    ______ ____
ROOT
ATOM      1  C   UNL     1      18.729  -0.349  52.490  0.00  0.00    +0.000 A 
ATOM      2  C   UNL     1      18.520   0.213  51.214  0.00  0.00    +0.000 A 
ATOM      3  C   UNL     1      19.559   0.744  50.466  0.00  0.00    +0.000 A 
ATOM      4  C   UNL     1      20.821   0.853  51.026  0.00  0.00    +0.000 A 
ATOM      5  C   UNL     1      21.082   0.469  52.357  0.00  0.00    +0.000 A 
ATOM      6  C   UNL     1      22.334   0.692  52.997  0.00  0.00    +0.000 A 
ATOM      7  C   UNL     1      22.639   0.081  54.219  0.00  0.00    +0.000 A 
ATOM      8  C   UNL     1      21.696  -0.719  54.836  0.00  0.00    +0.000 A 
ATOM      9  C   UNL     1      20.422  -0.855  54.276  0.00  0.00    +0.000 A 
ATOM     10  C   UNL     1      20.048  -0.235  53.058  0.00  0.00    +0.000 A 
ENDROOT
BRANCH   1  12
ATOM     11  C   UNL     1      17.907  -2.478  53.407  0.00  0.00    +0.000 C 
ATOM     12  N   UNL     1      17.671  -1.058  53.120  0.00  0.00    +0.000 N 
ATOM     13  C   UNL     1      16.307  -0.759  52.666  0.00  0.00    +0.000 C 
ENDBRANCH   1  12
BRANCH   6  14
ATOM     14  S   UNL     1      23.594   1.768  52.304  0.00  0.00    +0.000 S 
ATOM     15  O   UNL     1      24.392   0.989  51.374  0.00  0.00    +0.000 OA
ATOM     16  O   UNL     1      22.934   2.975  51.868  0.00  0.00    +0.000 OA
BRANCH  14  17
ATOM     17  N   UNL     1      24.607   2.187  53.592  0.00  0.00    +0.000 N 
ATOM     18  H   UNL     1      24.341   2.858  54.260  0.00  0.00    +0.000 HD
BRANCH  17  19
ATOM     19  C   UNL     1      25.851   1.529  53.666  0.00  0.00    +0.000 A 
ATOM     20  C   UNL     1      26.059   0.325  54.328  0.00  0.00    +0.000 A 
ATOM     21  N   UNL     1      27.257  -0.315  54.319  0.00  0.00    +0.000 NA
ATOM     22  C   UNL     1      28.240   0.311  53.634  0.00  0.00    +0.000 A 
ATOM     23 BR   UNL     1      29.955  -0.489  53.573  0.00  0.00    +0.000 Br
ATOM     24  C   UNL     1      28.022   1.517  52.979  0.00  0.00    +0.000 A 
ATOM     25  N   UNL     1      26.819   2.154  52.974  0.00  0.00    +0.000 NA
ENDBRANCH  17  19
ENDBRANCH  14  17
ENDBRANCH   6  14
TORSDOF 4
ENDMDL
MODEL 7
REMARK VINA RESULT:    -7.079      2.956      3.443
REMARK INTER + INTRA:          -9.056
REMARK INTER:                  -8.733
REMARK INTRA:                  -0.323
REMARK UNBOUND:                -0.322
REMARK  Name = 
REMARK  6 active torsions:
REMARK  status: ('A' for Active; 'I' for Inactive)
REMARK    1  A    between atoms: C_1  and  N_2
REMARK    2  A    between atoms: N_2  and  C_3
REMARK    3  A    between atoms: N_2  and  C_4
REMARK    4  A    between atoms: C_9  and  S_10
REMARK    5  A    between atoms: S_10  and  N_13
REMARK    6  A    between atoms: N_13  and  C_14
REMARK                            x       y       z     vdW  Elec       q    Type
REMARK                         _______ _______ _______ _____ _____    ______ ____
ROOT
ATOM      1  C   UNL     1      24.960   0.191  52.998  0.00  0.00    +0.000 A 
ATOM      2  C   UNL     1      25.241   1.171  52.023  0.00  0.00    +0.000 A 
ATOM      3  C   UNL     1      24.242   1.935  51.439  0.00  0.00    +0.000 A 
ATOM      4  C   UNL     1      22.915   1.650  51.711  0.00  0.00    +0.000 A 
ATOM      5  C   UNL     1      22.537   0.578  52.545  0.00  0.00    +0.000 A 
ATOM      6  C   UNL     1      21.183   0.182  52.735  0.00  0.00    +0.000 A 
ATOM      7  C   UNL     1      20.828  -0.712  53.752  0.00  0.00    +0.000 A 
ATOM      8  C   UNL     1      21.811  -1.254  54.558  0.00  0.00    +0.000 A 
ATOM      9  C   UNL     1      23.155  -0.964  54.310  0.00  0.00    +0.000 A 
ATOM     10  C   UNL     1      23.574  -0.090  53.276  0.00  0.00    +0.000 A 
ENDROOT
BRANCH   1  12
ATOM     11  C   UNL     1      26.631   0.371  54.793  0.00  0.00    +0.000 C 
ATOM     12  N   UNL     1      26.033  -0.413  53.705  0.00  0.00    +0.000 N 
ATOM     13  C   UNL     1      27.006  -1.177  52.915  0.00  0.00    +0.000 C 
ENDBRANCH   1  12
BRANCH   6  14
ATOM     14  S   UNL     1      19.848   0.782  51.694  0.00  0.00    +0.000 S 
ATOM     15  O   UNL     1      19.443   2.087  52.185  0.00  0.00    +0.000 OA
ATOM     16  O   UNL     1      20.265   0.613  50.323  0.00  0.00    +0.000 OA
BRANCH  14  17
ATOM     17  N   UNL     1      18.547  -0.267  51.956  0.00  0.00    +0.000 N 
ATOM     18  H   UNL     1      18.631  -1.057  52.538  0.00  0.00    +0.000 HD
BRANCH  17  19
ATOM     19  C   UNL     1      17.336   0.041  51.305  0.00  0.00    +0.000 A 
ATOM     20  C   UNL     1      17.094  -0.194  49.957  0.00  0.00    +0.000 A 
ATOM     21  N   UNL     1      15.890   0.051  49.379  0.00  0.00    +0.000 NA
ATOM     22  C   UNL     1      14.946   0.559  50.203  0.00  0.00    +0.000 A 
ATOM     23 BR   UNL     1      13.237   0.953  49.493  0.00  0.00    +0.000 Br
ATOM     24  C   UNL     1      15.201   0.794  51.550  0.00  0.00    +0.000 A 
ATOM     25  N   UNL     1      16.403   0.535  52.136  0.00  0.00    +0.000 NA
ENDBRANCH  17  19
ENDBRANCH  14  17
ENDBRANCH   6  14
TORSDOF 4
ENDMDL
MODEL 8
REMARK VINA RESULT:    -7.077      2.496      3.881
REMARK INTER + INTRA:          -9.054
REMARK INTER:                  -8.589
REMARK INTRA:                  -0.465
REMARK UNBOUND:                -0.322
REMARK  Name = 
REMARK  6 active torsions:
REMARK  status: ('A' for Active; 'I' for Inactive)
REMARK    1  A    between atoms: C_1  and  N_2
REMARK    2  A    between atoms: N_2  and  C_3
REMARK    3  A    between atoms: N_2  and  C_4
REMARK    4  A    between atoms: C_9  and  S_10
REMARK    5  A    between atoms: S_10  and  N_13
REMARK    6  A    between atoms: N_13  and  C_14
REMARK                            x       y       z     vdW  Elec       q    Type
REMARK                         _______ _______ _______ _____ _____    ______ ____
ROOT
ATOM      1  C   UNL     1      25.704   0.259  53.046  0.00  0.00    +0.000 A 
ATOM      2  C   UNL     1      24.572  -0.341  53.634  0.00  0.00    +0.000 A 
ATOM      3  C   UNL     1      23.284  -0.062  53.203  0.00  0.00    +0.000 A 
ATOM      4  C   UNL     1      23.077   0.930  52.260  0.00  0.00    +0.000 A 
ATOM      5  C   UNL     1      24.139   1.698  51.739  0.00  0.00    +0.000 A 
ATOM      6  C   UNL     1      23.941   2.809  50.871  0.00  0.00    +0.000 A 
ATOM      7  C   UNL     1      25.013   3.386  50.181  0.00  0.00    +0.000 A 
ATOM      8  C   UNL     1      26.292   2.899  50.376  0.00  0.00    +0.000 A 
ATOM      9  C   UNL     1      26.517   1.885  51.311  0.00  0.00    +0.000 A 
ATOM     10  C   UNL     1      25.475   1.286  52.060  0.00  0.00    +0.000 A 
ENDROOT
BRANCH   1  12
ATOM     11  C   UNL     1      27.361  -1.552  52.901  0.00  0.00    +0.000 C 
ATOM     12  N   UNL     1      26.999  -0.215  53.387  0.00  0.00    +0.000 N 
ATOM     13  C   UNL     1      27.480   0.078  54.742  0.00  0.00    +0.000 C 
ENDBRANCH   1  12
BRANCH   6  14
ATOM     14  S   UNL     1      22.327   3.551  50.607  0.00  0.00    +0.000 S 
ATOM     15  O   UNL     1      21.470   2.559  49.981  0.00  0.00    +0.000 OA
ATOM     16  O   UNL     1      21.936   4.177  51.847  0.00  0.00    +0.000 OA
BRANCH  14  17
ATOM     17  N   UNL     1      22.562   4.784  49.474  0.00  0.00    +0.000 N 
ATOM     18  H   UNL     1      23.197   4.684  48.728  0.00  0.00    +0.000 HD
BRANCH  17  19
ATOM     19  C   UNL     1      21.806   5.961  49.644  0.00  0.00    +0.000 A 
ATOM     20  C   UNL     1      22.337   7.175  50.063  0.00  0.00    +0.000 A 
ATOM     21  N   UNL     1      21.591   8.306  50.148  0.00  0.00    +0.000 NA
ATOM     22  C   UNL     1      20.289   8.166  49.814  0.00  0.00    +0.000 A 
ATOM     23 BR   UNL     1      19.156   9.679  49.916  0.00  0.00    +0.000 Br
ATOM     24  C   UNL     1      19.767   6.945  49.401  0.00  0.00    +0.000 A 
ATOM     25  N   UNL     1      20.516   5.812  49.299  0.00  0.00    +0.000 NA
ENDBRANCH  17  19
ENDBRANCH  14  17
ENDBRANCH   6  14
TORSDOF 4
ENDMDL
MODEL 9
REMARK VINA RESULT:    -6.921      5.011      7.112
REMARK INTER + INTRA:          -8.861
REMARK INTER:                  -8.465
REMARK INTRA:                  -0.396
REMARK UNBOUND:                -0.322
REMARK  Name = 
REMARK  6 active torsions:
REMARK  status: ('A' for Active; 'I' for Inactive)
REMARK    1  A    between atoms: C_1  and  N_2
REMARK    2  A    between atoms: N_2  and  C_3
REMARK    3  A    between atoms: N_2  and  C_4
REMARK    4  A    between atoms: C_9  and  S_10
REMARK    5  A    between atoms: S_10  and  N_13
REMARK    6  A    between atoms: N_13  and  C_14
REMARK                            x       y       z     vdW  Elec       q    Type
REMARK                         _______ _______ _______ _____ _____    ______ ____
ROOT
ATOM      1  C   UNL     1      26.868   7.313  49.043  0.00  0.00    +0.000 A 
ATOM      2  C   UNL     1      27.805   6.416  48.490  0.00  0.00    +0.000 A 
ATOM      3  C   UNL     1      27.619   5.043  48.527  0.00  0.00    +0.000 A 
ATOM      4  C   UNL     1      26.555   4.515  49.239  0.00  0.00    +0.000 A 
ATOM      5  C   UNL     1      25.662   5.332  49.962  0.00  0.00    +0.000 A 
ATOM      6  C   UNL     1      24.643   4.808  50.807  0.00  0.00    +0.000 A 
ATOM      7  C   UNL     1      23.627   5.631  51.307  0.00  0.00    +0.000 A 
ATOM      8  C   UNL     1      23.635   6.981  51.012  0.00  0.00    +0.000 A 
ATOM      9  C   UNL     1      24.691   7.529  50.280  0.00  0.00    +0.000 A 
ATOM     10  C   UNL     1      25.762   6.750  49.775  0.00  0.00    +0.000 A 
ENDROOT
BRANCH   1  12
ATOM     11  C   UNL     1      27.206   9.111  47.400  0.00  0.00    +0.000 C 
ATOM     12  N   UNL     1      27.008   8.705  48.797  0.00  0.00    +0.000 N 
ATOM     13  C   UNL     1      27.804   9.475  49.760  0.00  0.00    +0.000 C 
ENDBRANCH   1  12
BRANCH   6  14
ATOM     14  S   UNL     1      24.589   3.081  51.298  0.00  0.00    +0.000 S 
ATOM     15  O   UNL     1      23.928   2.332  50.245  0.00  0.00    +0.000 OA
ATOM     16  O   UNL     1      25.917   2.718  51.732  0.00  0.00    +0.000 OA
BRANCH  14  17
ATOM     17  N   UNL     1      23.582   3.016  52.655  0.00  0.00    +0.000 N 
ATOM     18  H   UNL     1      23.771   3.545  53.464  0.00  0.00    +0.000 HD
BRANCH  17  19
ATOM     19  C   UNL     1      22.458   2.169  52.577  0.00  0.00    +0.000 A 
ATOM     20  C   UNL     1      22.462   0.831  52.950  0.00  0.00    +0.000 A 
ATOM     21  N   UNL     1      21.341   0.064  52.927  0.00  0.00    +0.000 NA
ATOM     22  C   UNL     1      20.223   0.689  52.496  0.00  0.00    +0.000 A 
ATOM     23 BR   UNL     1      18.609  -0.295  52.408  0.00  0.00    +0.000 Br
ATOM     24  C   UNL     1      20.232   2.028  52.120  0.00  0.00    +0.000 A 
ATOM     25  N   UNL     1      21.351   2.803  52.157  0.00  0.00    +0.000 NA
ENDBRANCH  17  19
ENDBRANCH  14  17
ENDBRANCH   6  14
TORSDOF 4
ENDMDL
