MODEL 1
REMARK VINA RESULT:    -9.748      0.000      0.000
REMARK INTER + INTRA:         -12.591
REMARK INTER:                 -12.027
REMARK INTRA:                  -0.564
REMARK UNBOUND:                -0.564
REMARK  Name = 
REMARK  6 active torsions:
REMARK  status: ('A' for Active; 'I' for Inactive)
REMARK    1  A    between atoms: C_1  and  C_2
REMARK    2  A    between atoms: C_2  and  C_3
REMARK    3  A    between atoms: N_10  and  C_11
REMARK    4  A    between atoms: C_15  and  O_16
REMARK    5  A    between atoms: O_16  and  C_17
REMARK    6  A    between atoms: C_17  and  C_18
REMARK                            x       y       z     vdW  Elec       q    Type
REMARK                         _______ _______ _______ _____ _____    ______ ____
ROOT
ATOM      1  C   UNL     1      26.175  -1.093  52.533  0.00  0.00    +0.000 C 
ATOM      2  C   UNL     1      27.103  -0.236  53.413  0.00  0.00    +0.000 C 
ATOM      3  C   UNL     1      26.491  -0.167  54.835  0.00  0.00    +0.000 C 
ATOM      4  N   UNL     1      28.282  -1.095  53.587  0.00  0.00    +0.000 N 
ATOM      5  C   UNL     1      29.409  -0.508  53.772  0.00  0.00    +0.000 C 
ATOM      6  N   UNL     1      30.481  -1.271  54.087  0.00  0.00    +0.000 N 
ATOM      7  N   UNL     1      29.601   0.825  53.741  0.00  0.00    +0.000 N 
ATOM      8  C   UNL     1      28.651   1.572  53.279  0.00  0.00    +0.000 C 
ATOM      9  N   UNL     1      28.976   2.882  53.155  0.00  0.00    +0.000 N 
ATOM     10  N   UNL     1      27.395   1.136  52.907  0.00  0.00    +0.000 N 
ATOM     11  H   UNL     1      28.211  -2.077  53.563  0.00  0.00    +0.000 HD
ATOM     12  H   UNL     1      30.393  -2.251  54.122  0.00  0.00    +0.000 HD
ATOM     13  H   UNL     1      31.347  -0.847  54.281  0.00  0.00    +0.000 HD
ATOM     14  H   UNL     1      30.443   1.221  54.062  0.00  0.00    +0.000 HD
ATOM     15  H   UNL     1      29.872   3.193  53.420  0.00  0.00    +0.000 HD
ATOM     16  H   UNL     1      28.317   3.522  52.802  0.00  0.00    +0.000 HD
ENDROOT
BRANCH  10  17
ATOM     17  C   UNL     1      26.310   1.993  52.544  0.00  0.00    +0.000 A 
ATOM     18  C   UNL     1      25.303   2.344  53.459  0.00  0.00    +0.000 A 
ATOM     19  C   UNL     1      24.295   3.263  53.150  0.00  0.00    +0.000 A 
ATOM     20  C   UNL     1      24.170   3.750  51.855  0.00  0.00    +0.000 A 
ATOM     21  C   UNL     1      25.033   3.285  50.871  0.00  0.00    +0.000 A 
ATOM     22  C   UNL     1      26.125   2.481  51.233  0.00  0.00    +0.000 A 
BRANCH  21  23
ATOM     23  O   UNL     1      24.905   3.544  49.528  0.00  0.00    +0.000 OA
BRANCH  23  24
ATOM     24  C   UNL     1      24.878   4.932  49.174  0.00  0.00    +0.000 C 
BRANCH  24  25
ATOM     25  C   UNL     1      26.256   5.498  48.879  0.00  0.00    +0.000 A 
ATOM     26  C   UNL     1      27.398   4.702  48.726  0.00  0.00    +0.000 A 
ATOM     27  C   UNL     1      28.619   5.274  48.357  0.00  0.00    +0.000 A 
ATOM     28  C   UNL     1      28.722   6.655  48.149  0.00  0.00    +0.000 A 
ATOM     29 CL   UNL     1      30.248   7.287  47.644  0.00  0.00    +0.000 Cl
ATOM     30  C   UNL     1      27.602   7.466  48.341  0.00  0.00    +0.000 A 
ATOM     31 CL   UNL     1      27.648   9.181  48.130  0.00  0.00    +0.000 Cl
ATOM     32  C   UNL     1      26.381   6.889  48.705  0.00  0.00    +0.000 A 
ENDBRANCH  24  25
ENDBRANCH  23  24
ENDBRANCH  21  23
ENDBRANCH  10  17
TORSDOF 4
ENDMDL
MODEL 2
REMARK VINA RESULT:    -8.976      4.274      7.431
REMARK INTER + INTRA:         -11.638
REMARK INTER:                 -10.969
REMARK INTRA:                  -0.669
REMARK UNBOUND:                -0.564
REMARK  Name = 
REMARK  6 active torsions:
REMARK  status: ('A' for Active; 'I' for Inactive)
REMARK    1  A    between atoms: C_1  and  C_2
REMARK    2  A    between atoms: C_2  and  C_3
REMARK    3  A    between atoms: N_10  and  C_11
REMARK    4  A    between atoms: C_15  and  O_16
REMARK    5  A    between atoms: O_16  and  C_17
REMARK    6  A    between atoms: C_17  and  C_18
REMARK                            x       y       z     vdW  Elec       q    Type
REMARK                         _______ _______ _______ _____ _____    ______ ____
ROOT
ATOM      1  C   UNL     1      23.490   7.352  51.377  0.00  0.00    +0.000 C 
ATOM      2  C   UNL     1      24.537   7.415  50.249  0.00  0.00    +0.000 C 
ATOM      3  C   UNL     1      23.828   7.900  48.960  0.00  0.00    +0.000 C 
ATOM      4  N   UNL     1      25.371   8.561  50.635  0.00  0.00    +0.000 N 
ATOM      5  C   UNL     1      26.598   8.543  50.254  0.00  0.00    +0.000 C 
ATOM      6  N   UNL     1      27.346   9.652  50.462  0.00  0.00    +0.000 N 
ATOM      7  N   UNL     1      27.190   7.526  49.600  0.00  0.00    +0.000 N 
ATOM      8  C   UNL     1      26.568   6.393  49.534  0.00  0.00    +0.000 C 
ATOM      9  N   UNL     1      27.289   5.388  48.980  0.00  0.00    +0.000 N 
ATOM     10  N   UNL     1      25.286   6.153  49.986  0.00  0.00    +0.000 N 
ATOM     11  H   UNL     1      25.007   9.308  51.162  0.00  0.00    +0.000 HD
ATOM     12  H   UNL     1      26.960  10.423  50.936  0.00  0.00    +0.000 HD
ATOM     13  H   UNL     1      28.275   9.686  50.139  0.00  0.00    +0.000 HD
ATOM     14  H   UNL     1      28.073   7.641  49.181  0.00  0.00    +0.000 HD
ATOM     15  H   UNL     1      28.203   5.558  48.658  0.00  0.00    +0.000 HD
ATOM     16  H   UNL     1      26.898   4.488  48.900  0.00  0.00    +0.000 HD
ENDROOT
BRANCH  10  17
ATOM     17  C   UNL     1      24.559   4.941  49.770  0.00  0.00    +0.000 A 
ATOM     18  C   UNL     1      23.664   4.794  48.696  0.00  0.00    +0.000 A 
ATOM     19  C   UNL     1      23.026   3.581  48.411  0.00  0.00    +0.000 A 
ATOM     20  C   UNL     1      23.146   2.510  49.286  0.00  0.00    +0.000 A 
ATOM     21  C   UNL     1      23.873   2.671  50.459  0.00  0.00    +0.000 A 
ATOM     22  C   UNL     1      24.623   3.841  50.651  0.00  0.00    +0.000 A 
BRANCH  21  23
ATOM     23  O   UNL     1      23.920   1.760  51.485  0.00  0.00    +0.000 OA
BRANCH  23  24
ATOM     24  C   UNL     1      24.634   2.189  52.651  0.00  0.00    +0.000 C 
BRANCH  24  25
ATOM     25  C   UNL     1      25.839   1.319  52.963  0.00  0.00    +0.000 A 
ATOM     26  C   UNL     1      25.912  -0.041  52.639  0.00  0.00    +0.000 A 
ATOM     27  C   UNL     1      27.087  -0.763  52.863  0.00  0.00    +0.000 A 
ATOM     28  C   UNL     1      28.207  -0.141  53.429  0.00  0.00    +0.000 A 
ATOM     29 CL   UNL     1      29.643  -1.080  53.627  0.00  0.00    +0.000 Cl
ATOM     30  C   UNL     1      28.134   1.204  53.797  0.00  0.00    +0.000 A 
ATOM     31 CL   UNL     1      29.459   2.043  54.523  0.00  0.00    +0.000 Cl
ATOM     32  C   UNL     1      26.958   1.925  53.566  0.00  0.00    +0.000 A 
ENDBRANCH  24  25
ENDBRANCH  23  24
ENDBRANCH  21  23
ENDBRANCH  10  17
TORSDOF 4
ENDMDL
MODEL 3
REMARK VINA RESULT:    -8.960      4.565      7.249
REMARK INTER + INTRA:         -11.619
REMARK INTER:                 -10.813
REMARK INTRA:                  -0.806
REMARK UNBOUND:                -0.564
REMARK  Name = 
REMARK  6 active torsions:
REMARK  status: ('A' for Active; 'I' for Inactive)
REMARK    1  A    between atoms: C_1  and  C_2
REMARK    2  A    between atoms: C_2  and  C_3
REMARK    3  A    between atoms: N_10  and  C_11
REMARK    4  A    between atoms: C_15  and  O_16
REMARK    5  A    between atoms: O_16  and  C_17
REMARK    6  A    between atoms: C_17  and  C_18
REMARK                            x       y       z     vdW  Elec       q    Type
REMARK                         _______ _______ _______ _____ _____    ______ ____
ROOT
ATOM      1  C   UNL     1      23.148   5.077  48.377  0.00  0.00    +0.000 C 
ATOM      2  C   UNL     1      24.002   5.246  49.647  0.00  0.00    +0.000 C 
ATOM      3  C   UNL     1      25.293   4.409  49.475  0.00  0.00    +0.000 C 
ATOM      4  N   UNL     1      24.475   6.634  49.546  0.00  0.00    +0.000 N 
ATOM      5  C   UNL     1      24.720   7.247  50.648  0.00  0.00    +0.000 C 
ATOM      6  N   UNL     1      25.301   8.468  50.581  0.00  0.00    +0.000 N 
ATOM      7  N   UNL     1      24.504   6.745  51.878  0.00  0.00    +0.000 N 
ATOM      8  C   UNL     1      23.799   5.664  51.985  0.00  0.00    +0.000 C 
ATOM      9  N   UNL     1      23.515   5.304  53.260  0.00  0.00    +0.000 N 
ATOM     10  N   UNL     1      23.329   4.904  50.933  0.00  0.00    +0.000 N 
ATOM     11  H   UNL     1      24.598   7.073  48.673  0.00  0.00    +0.000 HD
ATOM     12  H   UNL     1      25.479   8.880  49.704  0.00  0.00    +0.000 HD
ATOM     13  H   UNL     1      25.545   8.942  51.407  0.00  0.00    +0.000 HD
ATOM     14  H   UNL     1      24.873   7.187  52.676  0.00  0.00    +0.000 HD
ATOM     15  H   UNL     1      23.850   5.845  54.010  0.00  0.00    +0.000 HD
ATOM     16  H   UNL     1      22.974   4.500  53.436  0.00  0.00    +0.000 HD
ENDROOT
BRANCH  10  17
ATOM     17  C   UNL     1      22.684   3.635  51.069  0.00  0.00    +0.000 A 
ATOM     18  C   UNL     1      21.296   3.488  50.906  0.00  0.00    +0.000 A 
ATOM     19  C   UNL     1      20.666   2.239  50.932  0.00  0.00    +0.000 A 
ATOM     20  C   UNL     1      21.387   1.103  51.275  0.00  0.00    +0.000 A 
ATOM     21  C   UNL     1      22.725   1.230  51.626  0.00  0.00    +0.000 A 
ATOM     22  C   UNL     1      23.370   2.464  51.450  0.00  0.00    +0.000 A 
BRANCH  21  23
ATOM     23  O   UNL     1      23.497   0.225  52.154  0.00  0.00    +0.000 OA
BRANCH  23  24
ATOM     24  C   UNL     1      24.112   0.524  53.414  0.00  0.00    +0.000 C 
BRANCH  24  25
ATOM     25  C   UNL     1      25.592   0.187  53.448  0.00  0.00    +0.000 A 
ATOM     26  C   UNL     1      26.098  -1.087  53.161  0.00  0.00    +0.000 A 
ATOM     27  C   UNL     1      27.477  -1.309  53.113  0.00  0.00    +0.000 A 
ATOM     28  C   UNL     1      28.375  -0.265  53.365  0.00  0.00    +0.000 A 
ATOM     29 CL   UNL     1      30.064  -0.599  53.235  0.00  0.00    +0.000 Cl
ATOM     30  C   UNL     1      27.884   1.000  53.694  0.00  0.00    +0.000 A 
ATOM     31 CL   UNL     1      28.921   2.338  54.043  0.00  0.00    +0.000 Cl
ATOM     32  C   UNL     1      26.503   1.220  53.736  0.00  0.00    +0.000 A 
ENDBRANCH  24  25
ENDBRANCH  23  24
ENDBRANCH  21  23
ENDBRANCH  10  17
TORSDOF 4
ENDMDL
MODEL 4
REMARK VINA RESULT:    -8.795      5.003      6.642
REMARK INTER + INTRA:         -11.415
REMARK INTER:                 -10.488
REMARK INTRA:                  -0.927
REMARK UNBOUND:                -0.564
REMARK  Name = 
REMARK  6 active torsions:
REMARK  status: ('A' for Active; 'I' for Inactive)
REMARK    1  A    between atoms: C_1  and  C_2
REMARK    2  A    between atoms: C_2  and  C_3
REMARK    3  A    between atoms: N_10  and  C_11
REMARK    4  A    between atoms: C_15  and  O_16
REMARK    5  A    between atoms: O_16  and  C_17
REMARK    6  A    between atoms: C_17  and  C_18
REMARK                            x       y       z     vdW  Elec       q    Type
REMARK                         _______ _______ _______ _____ _____    ______ ____
ROOT
ATOM      1  C   UNL     1      25.009  -1.038  53.140  0.00  0.00    +0.000 C 
ATOM      2  C   UNL     1      26.182  -0.167  53.624  0.00  0.00    +0.000 C 
ATOM      3  C   UNL     1      25.973   0.129  55.131  0.00  0.00    +0.000 C 
ATOM      4  N   UNL     1      27.316  -1.101  53.610  0.00  0.00    +0.000 N 
ATOM      5  C   UNL     1      28.482  -0.598  53.416  0.00  0.00    +0.000 C 
ATOM      6  N   UNL     1      29.556  -1.410  53.552  0.00  0.00    +0.000 N 
ATOM      7  N   UNL     1      28.731   0.698  53.150  0.00  0.00    +0.000 N 
ATOM      8  C   UNL     1      27.735   1.465  52.846  0.00  0.00    +0.000 C 
ATOM      9  N   UNL     1      28.087   2.716  52.460  0.00  0.00    +0.000 N 
ATOM     10  N   UNL     1      26.403   1.102  52.872  0.00  0.00    +0.000 N 
ATOM     11  H   UNL     1      27.188  -2.068  53.744  0.00  0.00    +0.000 HD
ATOM     12  H   UNL     1      29.428  -2.367  53.746  0.00  0.00    +0.000 HD
ATOM     13  H   UNL     1      30.465  -1.045  53.456  0.00  0.00    +0.000 HD
ATOM     14  H   UNL     1      29.649   1.053  53.187  0.00  0.00    +0.000 HD
ATOM     15  H   UNL     1      29.036   2.976  52.441  0.00  0.00    +0.000 HD
ATOM     16  H   UNL     1      27.393   3.365  52.200  0.00  0.00    +0.000 HD
ENDROOT
BRANCH  10  17
ATOM     17  C   UNL     1      25.309   2.002  52.681  0.00  0.00    +0.000 A 
ATOM     18  C   UNL     1      24.936   2.936  53.662  0.00  0.00    +0.000 A 
ATOM     19  C   UNL     1      23.937   3.891  53.448  0.00  0.00    +0.000 A 
ATOM     20  C   UNL     1      23.167   3.846  52.293  0.00  0.00    +0.000 A 
ATOM     21  C   UNL     1      23.379   2.823  51.378  0.00  0.00    +0.000 A 
ATOM     22  C   UNL     1      24.480   1.968  51.540  0.00  0.00    +0.000 A 
BRANCH  21  23
ATOM     23  O   UNL     1      22.576   2.560  50.295  0.00  0.00    +0.000 OA
BRANCH  23  24
ATOM     24  C   UNL     1      22.268   1.176  50.085  0.00  0.00    +0.000 C 
BRANCH  24  25
ATOM     25  C   UNL     1      21.143   0.676  50.974  0.00  0.00    +0.000 A 
ATOM     26  C   UNL     1      19.788   0.806  50.647  0.00  0.00    +0.000 A 
ATOM     27  C   UNL     1      18.803   0.237  51.459  0.00  0.00    +0.000 A 
ATOM     28  C   UNL     1      19.155  -0.460  52.621  0.00  0.00    +0.000 A 
ATOM     29 CL   UNL     1      17.889  -1.183  53.548  0.00  0.00    +0.000 Cl
ATOM     30  C   UNL     1      20.500  -0.560  52.982  0.00  0.00    +0.000 A 
ATOM     31 CL   UNL     1      21.020  -1.381  54.411  0.00  0.00    +0.000 Cl
ATOM     32  C   UNL     1      21.483   0.006  52.164  0.00  0.00    +0.000 A 
ENDBRANCH  24  25
ENDBRANCH  23  24
ENDBRANCH  21  23
ENDBRANCH  10  17
TORSDOF 4
ENDMDL
MODEL 5
REMARK VINA RESULT:    -8.707      5.730      8.707
REMARK INTER + INTRA:         -11.307
REMARK INTER:                 -10.431
REMARK INTRA:                  -0.875
REMARK UNBOUND:                -0.564
REMARK  Name = 
REMARK  6 active torsions:
REMARK  status: ('A' for Active; 'I' for Inactive)
REMARK    1  A    between atoms: C_1  and  C_2
REMARK    2  A    between atoms: C_2  and  C_3
REMARK    3  A    between atoms: N_10  and  C_11
REMARK    4  A    between atoms: C_15  and  O_16
REMARK    5  A    between atoms: O_16  and  C_17
REMARK    6  A    between atoms: C_17  and  C_18
REMARK                            x       y       z     vdW  Elec       q    Type
REMARK                         _______ _______ _______ _____ _____    ______ ____
ROOT
ATOM      1  C   UNL     1      21.637   3.661  49.814  0.00  0.00    +0.000 C 
ATOM      2  C   UNL     1      22.425   4.983  49.825  0.00  0.00    +0.000 C 
ATOM      3  C   UNL     1      23.145   5.128  48.461  0.00  0.00    +0.000 C 
ATOM      4  N   UNL     1      21.366   6.000  49.765  0.00  0.00    +0.000 N 
ATOM      5  C   UNL     1      21.620   7.138  50.304  0.00  0.00    +0.000 C 
ATOM      6  N   UNL     1      20.726   8.140  50.128  0.00  0.00    +0.000 N 
ATOM      7  N   UNL     1      22.744   7.441  50.980  0.00  0.00    +0.000 N 
ATOM      8  C   UNL     1      23.538   6.475  51.315  0.00  0.00    +0.000 C 
ATOM      9  N   UNL     1      24.571   6.847  52.109  0.00  0.00    +0.000 N 
ATOM     10  N   UNL     1      23.395   5.152  50.945  0.00  0.00    +0.000 N 
ATOM     11  H   UNL     1      20.501   5.817  49.332  0.00  0.00    +0.000 HD
ATOM     12  H   UNL     1      19.888   7.970  49.641  0.00  0.00    +0.000 HD
ATOM     13  H   UNL     1      20.915   9.036  50.488  0.00  0.00    +0.000 HD
ATOM     14  H   UNL     1      22.957   8.373  51.214  0.00  0.00    +0.000 HD
ATOM     15  H   UNL     1      24.674   7.790  52.372  0.00  0.00    +0.000 HD
ATOM     16  H   UNL     1      25.220   6.175  52.421  0.00  0.00    +0.000 HD
ENDROOT
BRANCH  10  17
ATOM     17  C   UNL     1      24.360   4.128  51.195  0.00  0.00    +0.000 A 
ATOM     18  C   UNL     1      25.379   3.829  50.275  0.00  0.00    +0.000 A 
ATOM     19  C   UNL     1      26.392   2.902  50.551  0.00  0.00    +0.000 A 
ATOM     20  C   UNL     1      26.331   2.128  51.702  0.00  0.00    +0.000 A 
ATOM     21  C   UNL     1      25.239   2.260  52.551  0.00  0.00    +0.000 A 
ATOM     22  C   UNL     1      24.316   3.295  52.333  0.00  0.00    +0.000 A 
BRANCH  21  23
ATOM     23  O   UNL     1      24.968   1.437  53.616  0.00  0.00    +0.000 OA
BRANCH  23  24
ATOM     24  C   UNL     1      24.702   0.070  53.280  0.00  0.00    +0.000 C 
BRANCH  24  25
ATOM     25  C   UNL     1      23.226  -0.282  53.345  0.00  0.00    +0.000 A 
ATOM     26  C   UNL     1      22.656  -1.018  54.390  0.00  0.00    +0.000 A 
ATOM     27  C   UNL     1      21.275  -1.224  54.443  0.00  0.00    +0.000 A 
ATOM     28  C   UNL     1      20.441  -0.710  53.442  0.00  0.00    +0.000 A 
ATOM     29 CL   UNL     1      18.738  -0.958  53.600  0.00  0.00    +0.000 Cl
ATOM     30  C   UNL     1      21.001  -0.012  52.371  0.00  0.00    +0.000 A 
ATOM     31 CL   UNL     1      20.048   0.634  51.082  0.00  0.00    +0.000 Cl
ATOM     32  C   UNL     1      22.383   0.197  52.325  0.00  0.00    +0.000 A 
ENDBRANCH  24  25
ENDBRANCH  23  24
ENDBRANCH  21  23
ENDBRANCH  10  17
TORSDOF 4
ENDMDL
MODEL 6
REMARK VINA RESULT:    -8.588      5.312      8.484
REMARK INTER + INTRA:         -11.160
REMARK INTER:                 -10.757
REMARK INTRA:                  -0.404
REMARK UNBOUND:                -0.564
REMARK  Name = 
REMARK  6 active torsions:
REMARK  status: ('A' for Active; 'I' for Inactive)
REMARK    1  A    between atoms: C_1  and  C_2
REMARK    2  A    between atoms: C_2  and  C_3
REMARK    3  A    between atoms: N_10  and  C_11
REMARK    4  A    between atoms: C_15  and  O_16
REMARK    5  A    between atoms: O_16  and  C_17
REMARK    6  A    between atoms: C_17  and  C_18
REMARK                            x       y       z     vdW  Elec       q    Type
REMARK                         _______ _______ _______ _____ _____    ______ ____
ROOT
ATOM      1  C   UNL     1      23.291   7.923  50.764  0.00  0.00    +0.000 C 
ATOM      2  C   UNL     1      24.502   7.950  49.815  0.00  0.00    +0.000 C 
ATOM      3  C   UNL     1      24.133   8.823  48.589  0.00  0.00    +0.000 C 
ATOM      4  N   UNL     1      25.476   8.774  50.544  0.00  0.00    +0.000 N 
ATOM      5  C   UNL     1      26.719   8.540  50.320  0.00  0.00    +0.000 C 
ATOM      6  N   UNL     1      27.632   9.382  50.857  0.00  0.00    +0.000 N 
ATOM      7  N   UNL     1      27.192   7.555  49.533  0.00  0.00    +0.000 N 
ATOM      8  C   UNL     1      26.371   6.633  49.143  0.00  0.00    +0.000 C 
ATOM      9  N   UNL     1      26.954   5.610  48.472  0.00  0.00    +0.000 N 
ATOM     10  N   UNL     1      25.010   6.620  49.371  0.00  0.00    +0.000 N 
ATOM     11  H   UNL     1      25.189   9.472  51.175  0.00  0.00    +0.000 HD
ATOM     12  H   UNL     1      27.338  10.119  51.441  0.00  0.00    +0.000 HD
ATOM     13  H   UNL     1      28.589   9.258  50.665  0.00  0.00    +0.000 HD
ATOM     14  H   UNL     1      28.138   7.536  49.261  0.00  0.00    +0.000 HD
ATOM     15  H   UNL     1      27.925   5.619  48.309  0.00  0.00    +0.000 HD
ATOM     16  H   UNL     1      26.407   4.859  48.146  0.00  0.00    +0.000 HD
ENDROOT
BRANCH  10  17
ATOM     17  C   UNL     1      24.098   5.676  48.805  0.00  0.00    +0.000 A 
ATOM     18  C   UNL     1      23.300   5.992  47.692  0.00  0.00    +0.000 A 
ATOM     19  C   UNL     1      22.481   5.047  47.063  0.00  0.00    +0.000 A 
ATOM     20  C   UNL     1      22.317   3.787  47.623  0.00  0.00    +0.000 A 
ATOM     21  C   UNL     1      22.944   3.493  48.827  0.00  0.00    +0.000 A 
ATOM     22  C   UNL     1      23.874   4.399  49.360  0.00  0.00    +0.000 A 
BRANCH  21  23
ATOM     23  O   UNL     1      22.723   2.361  49.572  0.00  0.00    +0.000 OA
BRANCH  23  24
ATOM     24  C   UNL     1      23.683   2.114  50.607  0.00  0.00    +0.000 C 
BRANCH  24  25
ATOM     25  C   UNL     1      23.172   1.164  51.677  0.00  0.00    +0.000 A 
ATOM     26  C   UNL     1      21.851   0.702  51.728  0.00  0.00    +0.000 A 
ATOM     27  C   UNL     1      21.468  -0.249  52.678  0.00  0.00    +0.000 A 
ATOM     28  C   UNL     1      22.395  -0.743  53.604  0.00  0.00    +0.000 A 
ATOM     29 CL   UNL     1      21.865  -1.955  54.715  0.00  0.00    +0.000 Cl
ATOM     30  C   UNL     1      23.705  -0.258  53.592  0.00  0.00    +0.000 A 
ATOM     31 CL   UNL     1      24.905  -0.795  54.713  0.00  0.00    +0.000 Cl
ATOM     32  C   UNL     1      24.086   0.689  52.636  0.00  0.00    +0.000 A 
ENDBRANCH  24  25
ENDBRANCH  23  24
ENDBRANCH  21  23
ENDBRANCH  10  17
TORSDOF 4
ENDMDL
MODEL 7
REMARK VINA RESULT:    -8.576      3.062      4.407
REMARK INTER + INTRA:         -11.145
REMARK INTER:                 -10.413
REMARK INTRA:                  -0.732
REMARK UNBOUND:                -0.564
REMARK  Name = 
REMARK  6 active torsions:
REMARK  status: ('A' for Active; 'I' for Inactive)
REMARK    1  A    between atoms: C_1  and  C_2
REMARK    2  A    between atoms: C_2  and  C_3
REMARK    3  A    between atoms: N_10  and  C_11
REMARK    4  A    between atoms: C_15  and  O_16
REMARK    5  A    between atoms: O_16  and  C_17
REMARK    6  A    between atoms: C_17  and  C_18
REMARK                            x       y       z     vdW  Elec       q    Type
REMARK                         _______ _______ _______ _____ _____    ______ ____
ROOT
ATOM      1  C   UNL     1      25.627   2.968  51.899  0.00  0.00    +0.000 C 
ATOM      2  C   UNL     1      26.373   1.808  52.583  0.00  0.00    +0.000 C 
ATOM      3  C   UNL     1      26.810   0.803  51.487  0.00  0.00    +0.000 C 
ATOM      4  N   UNL     1      27.637   2.429  53.003  0.00  0.00    +0.000 N 
ATOM      5  C   UNL     1      28.213   1.934  54.040  0.00  0.00    +0.000 C 
ATOM      6  N   UNL     1      29.449   2.383  54.357  0.00  0.00    +0.000 N 
ATOM      7  N   UNL     1      27.710   0.948  54.807  0.00  0.00    +0.000 N 
ATOM      8  C   UNL     1      26.471   0.614  54.643  0.00  0.00    +0.000 C 
ATOM      9  N   UNL     1      26.009  -0.287  55.545  0.00  0.00    +0.000 N 
ATOM     10  N   UNL     1      25.628   1.104  53.666  0.00  0.00    +0.000 N 
ATOM     11  H   UNL     1      28.025   3.189  52.513  0.00  0.00    +0.000 HD
ATOM     12  H   UNL     1      29.861   3.104  53.827  0.00  0.00    +0.000 HD
ATOM     13  H   UNL     1      29.936   1.990  55.116  0.00  0.00    +0.000 HD
ATOM     14  H   UNL     1      28.271   0.494  55.476  0.00  0.00    +0.000 HD
ATOM     15  H   UNL     1      26.609  -0.637  56.242  0.00  0.00    +0.000 HD
ATOM     16  H   UNL     1      25.073  -0.591  55.502  0.00  0.00    +0.000 HD
ENDROOT
BRANCH  10  17
ATOM     17  C   UNL     1      24.311   0.614  53.404  0.00  0.00    +0.000 A 
ATOM     18  C   UNL     1      24.040  -0.761  53.296  0.00  0.00    +0.000 A 
ATOM     19  C   UNL     1      22.741  -1.260  53.144  0.00  0.00    +0.000 A 
ATOM     20  C   UNL     1      21.680  -0.387  52.942  0.00  0.00    +0.000 A 
ATOM     21  C   UNL     1      21.931   0.976  52.856  0.00  0.00    +0.000 A 
ATOM     22  C   UNL     1      23.212   1.463  53.158  0.00  0.00    +0.000 A 
BRANCH  21  23
ATOM     23  O   UNL     1      21.009   1.922  52.483  0.00  0.00    +0.000 OA
BRANCH  23  24
ATOM     24  C   UNL     1      20.851   2.098  51.070  0.00  0.00    +0.000 C 
BRANCH  24  25
ATOM     25  C   UNL     1      21.905   3.007  50.462  0.00  0.00    +0.000 A 
ATOM     26  C   UNL     1      22.757   2.611  49.424  0.00  0.00    +0.000 A 
ATOM     27  C   UNL     1      23.639   3.525  48.841  0.00  0.00    +0.000 A 
ATOM     28  C   UNL     1      23.695   4.848  49.296  0.00  0.00    +0.000 A 
ATOM     29 CL   UNL     1      24.769   5.937  48.493  0.00  0.00    +0.000 Cl
ATOM     30  C   UNL     1      22.881   5.245  50.358  0.00  0.00    +0.000 A 
ATOM     31 CL   UNL     1      22.904   6.851  50.997  0.00  0.00    +0.000 Cl
ATOM     32  C   UNL     1      21.996   4.329  50.936  0.00  0.00    +0.000 A 
ENDBRANCH  24  25
ENDBRANCH  23  24
ENDBRANCH  21  23
ENDBRANCH  10  17
TORSDOF 4
ENDMDL
MODEL 8
REMARK VINA RESULT:    -8.467      5.741      7.632
REMARK INTER + INTRA:         -11.011
REMARK INTER:                 -10.385
REMARK INTRA:                  -0.626
REMARK UNBOUND:                -0.564
REMARK  Name = 
REMARK  6 active torsions:
REMARK  status: ('A' for Active; 'I' for Inactive)
REMARK    1  A    between atoms: C_1  and  C_2
REMARK    2  A    between atoms: C_2  and  C_3
REMARK    3  A    between atoms: N_10  and  C_11
REMARK    4  A    between atoms: C_15  and  O_16
REMARK    5  A    between atoms: O_16  and  C_17
REMARK    6  A    between atoms: C_17  and  C_18
REMARK                            x       y       z     vdW  Elec       q    Type
REMARK                         _______ _______ _______ _____ _____    ______ ____
ROOT
ATOM      1  C   UNL     1      20.828   0.422  55.019  0.00  0.00    +0.000 C 
ATOM      2  C   UNL     1      20.395  -0.171  53.666  0.00  0.00    +0.000 C 
ATOM      3  C   UNL     1      21.495  -1.155  53.196  0.00  0.00    +0.000 C 
ATOM      4  N   UNL     1      19.279  -1.054  54.033  0.00  0.00    +0.000 N 
ATOM      5  C   UNL     1      18.373  -1.248  53.144  0.00  0.00    +0.000 C 
ATOM      6  N   UNL     1      17.418  -2.174  53.398  0.00  0.00    +0.000 N 
ATOM      7  N   UNL     1      18.331  -0.650  51.938  0.00  0.00    +0.000 N 
ATOM      8  C   UNL     1      19.116   0.356  51.725  0.00  0.00    +0.000 C 
ATOM      9  N   UNL     1      18.914   0.985  50.541  0.00  0.00    +0.000 N 
ATOM     10  N   UNL     1      20.088   0.816  52.591  0.00  0.00    +0.000 N 
ATOM     11  H   UNL     1      19.228  -1.476  54.921  0.00  0.00    +0.000 HD
ATOM     12  H   UNL     1      17.405  -2.640  54.266  0.00  0.00    +0.000 HD
ATOM     13  H   UNL     1      16.739  -2.380  52.717  0.00  0.00    +0.000 HD
ATOM     14  H   UNL     1      17.718  -0.969  51.237  0.00  0.00    +0.000 HD
ATOM     15  H   UNL     1      18.222   0.658  49.923  0.00  0.00    +0.000 HD
ATOM     16  H   UNL     1      19.460   1.768  50.299  0.00  0.00    +0.000 HD
ENDROOT
BRANCH  10  17
ATOM     17  C   UNL     1      21.046   1.829  52.278  0.00  0.00    +0.000 A 
ATOM     18  C   UNL     1      20.736   3.196  52.366  0.00  0.00    +0.000 A 
ATOM     19  C   UNL     1      21.692   4.198  52.165  0.00  0.00    +0.000 A 
ATOM     20  C   UNL     1      22.964   3.866  51.716  0.00  0.00    +0.000 A 
ATOM     21  C   UNL     1      23.258   2.537  51.437  0.00  0.00    +0.000 A 
ATOM     22  C   UNL     1      22.336   1.538  51.787  0.00  0.00    +0.000 A 
BRANCH  21  23
ATOM     23  O   UNL     1      24.405   2.099  50.824  0.00  0.00    +0.000 OA
BRANCH  23  24
ATOM     24  C   UNL     1      25.605   2.778  51.215  0.00  0.00    +0.000 C 
BRANCH  24  25
ATOM     25  C   UNL     1      26.606   1.866  51.903  0.00  0.00    +0.000 A 
ATOM     26  C   UNL     1      27.714   2.340  52.616  0.00  0.00    +0.000 A 
ATOM     27  C   UNL     1      28.543   1.454  53.311  0.00  0.00    +0.000 A 
ATOM     28  C   UNL     1      28.287   0.078  53.292  0.00  0.00    +0.000 A 
ATOM     29 CL   UNL     1      29.321  -0.951  54.216  0.00  0.00    +0.000 Cl
ATOM     30  C   UNL     1      27.211  -0.412  52.550  0.00  0.00    +0.000 A 
ATOM     31 CL   UNL     1      26.838  -2.097  52.453  0.00  0.00    +0.000 Cl
ATOM     32  C   UNL     1      26.380   0.478  51.860  0.00  0.00    +0.000 A 
ENDBRANCH  24  25
ENDBRANCH  23  24
ENDBRANCH  21  23
ENDBRANCH  10  17
TORSDOF 4
ENDMDL
MODEL 9
REMARK VINA RESULT:    -8.465      4.882      8.153
REMARK INTER + INTRA:         -11.008
REMARK INTER:                 -10.469
REMARK INTRA:                  -0.539
REMARK UNBOUND:                -0.564
REMARK  Name = 
REMARK  6 active torsions:
REMARK  status: ('A' for Active; 'I' for Inactive)
REMARK    1  A    between atoms: C_1  and  C_2
REMARK    2  A    between atoms: C_2  and  C_3
REMARK    3  A    between atoms: N_10  and  C_11
REMARK    4  A    between atoms: C_15  and  O_16
REMARK    5  A    between atoms: O_16  and  C_17
REMARK    6  A    between atoms: C_17  and  C_18
REMARK                            x       y       z     vdW  Elec       q    Type
REMARK                         _______ _______ _______ _____ _____    ______ ____
ROOT
ATOM      1  C   UNL     1      22.943   5.744  47.295  0.00  0.00    +0.000 C 
ATOM      2  C   UNL     1      23.507   6.795  48.267  0.00  0.00    +0.000 C 
ATOM      3  C   UNL     1      24.728   7.470  47.592  0.00  0.00    +0.000 C 
ATOM      4  N   UNL     1      22.481   7.847  48.251  0.00  0.00    +0.000 N 
ATOM      5  C   UNL     1      22.359   8.557  49.314  0.00  0.00    +0.000 C 
ATOM      6  N   UNL     1      21.531   9.628  49.272  0.00  0.00    +0.000 N 
ATOM      7  N   UNL     1      23.042   8.363  50.458  0.00  0.00    +0.000 N 
ATOM      8  C   UNL     1      23.707   7.261  50.596  0.00  0.00    +0.000 C 
ATOM      9  N   UNL     1      24.251   7.084  51.825  0.00  0.00    +0.000 N 
ATOM     10  N   UNL     1      23.875   6.296  49.623  0.00  0.00    +0.000 N 
ATOM     11  H   UNL     1      21.913   7.999  47.461  0.00  0.00    +0.000 HD
ATOM     12  H   UNL     1      21.009   9.814  48.459  0.00  0.00    +0.000 HD
ATOM     13  H   UNL     1      21.453  10.219  50.055  0.00  0.00    +0.000 HD
ATOM     14  H   UNL     1      23.036   9.041  51.171  0.00  0.00    +0.000 HD
ATOM     15  H   UNL     1      24.131   7.772  52.519  0.00  0.00    +0.000 HD
ATOM     16  H   UNL     1      24.765   6.269  52.023  0.00  0.00    +0.000 HD
ENDROOT
BRANCH  10  17
ATOM     17  C   UNL     1      24.735   5.161  49.741  0.00  0.00    +0.000 A 
ATOM     18  C   UNL     1      26.003   5.126  49.137  0.00  0.00    +0.000 A 
ATOM     19  C   UNL     1      26.898   4.067  49.330  0.00  0.00    +0.000 A 
ATOM     20  C   UNL     1      26.493   2.930  50.016  0.00  0.00    +0.000 A 
ATOM     21  C   UNL     1      25.183   2.845  50.472  0.00  0.00    +0.000 A 
ATOM     22  C   UNL     1      24.352   3.973  50.398  0.00  0.00    +0.000 A 
BRANCH  21  23
ATOM     23  O   UNL     1      24.608   1.716  51.001  0.00  0.00    +0.000 OA
BRANCH  23  24
ATOM     24  C   UNL     1      24.727   1.577  52.422  0.00  0.00    +0.000 C 
BRANCH  24  25
ATOM     25  C   UNL     1      25.998   0.861  52.844  0.00  0.00    +0.000 A 
ATOM     26  C   UNL     1      26.226  -0.501  52.615  0.00  0.00    +0.000 A 
ATOM     27  C   UNL     1      27.457  -1.080  52.938  0.00  0.00    +0.000 A 
ATOM     28  C   UNL     1      28.476  -0.309  53.511  0.00  0.00    +0.000 A 
ATOM     29 CL   UNL     1      29.989  -1.078  53.835  0.00  0.00    +0.000 Cl
ATOM     30  C   UNL     1      28.247   1.040  53.785  0.00  0.00    +0.000 A 
ATOM     31 CL   UNL     1      29.441   2.057  54.511  0.00  0.00    +0.000 Cl
ATOM     32  C   UNL     1      27.016   1.617  53.454  0.00  0.00    +0.000 A 
ENDBRANCH  24  25
ENDBRANCH  23  24
ENDBRANCH  21  23
ENDBRANCH  10  17
TORSDOF 4
ENDMDL
