MODEL 1
REMARK VINA RESULT:    -8.041      0.000      0.000
REMARK INTER + INTRA:         -10.338
REMARK INTER:                  -9.922
REMARK INTRA:                  -0.416
REMARK UNBOUND:                -0.416
REMARK  Name = 
REMARK  7 active torsions:
REMARK  status: ('A' for Active; 'I' for Inactive)
REMARK    1  A    between atoms: C_1  and  O_2
REMARK    2  A    between atoms: O_2  and  C_3
REMARK    3  A    between atoms: N_10  and  S_11
REMARK    4  A    between atoms: S_11  and  C_14
REMARK    5  A    between atoms: C_19  and  N_20
REMARK    6  A    between atoms: N_20  and  C_21
REMARK    7  A    between atoms: N_20  and  C_22
REMARK                            x       y       z     vdW  Elec       q    Type
REMARK                         _______ _______ _______ _____ _____    ______ ____
ROOT
ATOM      1  S   UNL     1      22.313   1.807  51.114  0.00  0.00    +0.000 S 
ATOM      2  O   UNL     1      22.096   0.429  50.708  0.00  0.00    +0.000 OA
ATOM      3  O   UNL     1      21.976   2.877  50.189  0.00  0.00    +0.000 OA
ENDROOT
BRANCH   1   4
ATOM      4  C   UNL     1      24.054   1.966  51.553  0.00  0.00    +0.000 A 
ATOM      5  C   UNL     1      24.798   2.833  50.737  0.00  0.00    +0.000 A 
ATOM      6  C   UNL     1      26.182   2.784  50.754  0.00  0.00    +0.000 A 
ATOM      7  C   UNL     1      26.830   1.887  51.598  0.00  0.00    +0.000 A 
ATOM      8  C   UNL     1      26.152   1.076  52.537  0.00  0.00    +0.000 A 
ATOM      9  C   UNL     1      26.848   0.204  53.455  0.00  0.00    +0.000 A 
ATOM     10  C   UNL     1      26.056  -0.605  54.290  0.00  0.00    +0.000 A 
ATOM     11  C   UNL     1      24.665  -0.573  54.259  0.00  0.00    +0.000 A 
ATOM     12  C   UNL     1      24.007   0.272  53.376  0.00  0.00    +0.000 A 
ATOM     13  C   UNL     1      24.709   1.111  52.489  0.00  0.00    +0.000 A 
BRANCH   9  14
ATOM     14  N   UNL     1      28.245   0.098  53.546  0.00  0.00    +0.000 N 
ATOM     15  C   UNL     1      29.080   1.101  54.199  0.00  0.00    +0.000 C 
ATOM     16  C   UNL     1      28.913  -1.170  53.250  0.00  0.00    +0.000 C 
ENDBRANCH   9  14
ENDBRANCH   1   4
BRANCH   1  24
ATOM     17  C   UNL     1      19.959   0.114  53.276  0.00  0.00    +0.000 A 
ATOM     18  N   UNL     1      18.852  -0.660  53.141  0.00  0.00    +0.000 NA
ATOM     19  C   UNL     1      17.964  -0.232  52.223  0.00  0.00    +0.000 A 
ATOM     20 CL   UNL     1      16.596  -1.235  52.007  0.00  0.00    +0.000 Cl
ATOM     21  C   UNL     1      18.137   0.931  51.492  0.00  0.00    +0.000 A 
ATOM     22  N   UNL     1      19.251   1.698  51.594  0.00  0.00    +0.000 NA
ATOM     23  C   UNL     1      20.167   1.259  52.484  0.00  0.00    +0.000 A 
ATOM     24  N   UNL     1      21.348   2.042  52.480  0.00  0.00    +0.000 N 
ATOM     25  H   UNL     1      21.583   2.665  53.206  0.00  0.00    +0.000 HD
BRANCH  17  27
ATOM     26  C   UNL     1      21.056  -1.643  54.347  0.00  0.00    +0.000 C 
ATOM     27  O   UNL     1      20.880  -0.224  54.250  0.00  0.00    +0.000 OA
ENDBRANCH  17  27
ENDBRANCH   1  24
TORSDOF 4
ENDMDL
MODEL 2
REMARK VINA RESULT:    -7.660      1.159      1.230
REMARK INTER + INTRA:          -9.867
REMARK INTER:                  -9.529
REMARK INTRA:                  -0.339
REMARK UNBOUND:                -0.416
REMARK  Name = 
REMARK  7 active torsions:
REMARK  status: ('A' for Active; 'I' for Inactive)
REMARK    1  A    between atoms: C_1  and  O_2
REMARK    2  A    between atoms: O_2  and  C_3
REMARK    3  A    between atoms: N_10  and  S_11
REMARK    4  A    between atoms: S_11  and  C_14
REMARK    5  A    between atoms: C_19  and  N_20
REMARK    6  A    between atoms: N_20  and  C_21
REMARK    7  A    between atoms: N_20  and  C_22
REMARK                            x       y       z     vdW  Elec       q    Type
REMARK                         _______ _______ _______ _____ _____    ______ ____
ROOT
ATOM      1  S   UNL     1      22.469   2.390  50.344  0.00  0.00    +0.000 S 
ATOM      2  O   UNL     1      22.228   1.124  49.674  0.00  0.00    +0.000 OA
ATOM      3  O   UNL     1      22.401   3.621  49.572  0.00  0.00    +0.000 OA
ENDROOT
BRANCH   1   4
ATOM      4  C   UNL     1      24.099   2.290  51.108  0.00  0.00    +0.000 A 
ATOM      5  C   UNL     1      25.080   3.108  50.529  0.00  0.00    +0.000 A 
ATOM      6  C   UNL     1      26.419   2.879  50.794  0.00  0.00    +0.000 A 
ATOM      7  C   UNL     1      26.785   1.846  51.654  0.00  0.00    +0.000 A 
ATOM      8  C   UNL     1      25.850   1.065  52.371  0.00  0.00    +0.000 A 
ATOM      9  C   UNL     1      26.251   0.047  53.314  0.00  0.00    +0.000 A 
ATOM     10  C   UNL     1      25.225  -0.710  53.908  0.00  0.00    +0.000 A 
ATOM     11  C   UNL     1      23.879  -0.495  53.626  0.00  0.00    +0.000 A 
ATOM     12  C   UNL     1      23.505   0.490  52.722  0.00  0.00    +0.000 A 
ATOM     13  C   UNL     1      24.457   1.291  52.063  0.00  0.00    +0.000 A 
BRANCH   9  14
ATOM     14  N   UNL     1      27.583  -0.246  53.649  0.00  0.00    +0.000 N 
ATOM     15  C   UNL     1      28.258   0.330  54.807  0.00  0.00    +0.000 C 
ATOM     16  C   UNL     1      28.273  -1.374  53.023  0.00  0.00    +0.000 C 
ENDBRANCH   9  14
ENDBRANCH   1   4
BRANCH   1  24
ATOM     17  C   UNL     1      19.701   0.586  51.816  0.00  0.00    +0.000 A 
ATOM     18  N   UNL     1      18.612  -0.102  51.388  0.00  0.00    +0.000 NA
ATOM     19  C   UNL     1      17.923   0.484  50.389  0.00  0.00    +0.000 A 
ATOM     20 CL   UNL     1      16.584  -0.407  49.806  0.00  0.00    +0.000 Cl
ATOM     21  C   UNL     1      18.267   1.714  49.857  0.00  0.00    +0.000 A 
ATOM     22  N   UNL     1      19.369   2.399  50.253  0.00  0.00    +0.000 NA
ATOM     23  C   UNL     1      20.090   1.804  51.228  0.00  0.00    +0.000 A 
ATOM     24  N   UNL     1      21.278   2.514  51.535  0.00  0.00    +0.000 N 
ATOM     25  H   UNL     1      21.396   3.031  52.365  0.00  0.00    +0.000 HD
BRANCH  17  27
ATOM     26  C   UNL     1      19.683  -0.935  53.584  0.00  0.00    +0.000 C 
ATOM     27  O   UNL     1      20.415   0.081  52.887  0.00  0.00    +0.000 OA
ENDBRANCH  17  27
ENDBRANCH   1  24
TORSDOF 4
ENDMDL
MODEL 3
REMARK VINA RESULT:    -7.636      1.378      2.573
REMARK INTER + INTRA:          -9.838
REMARK INTER:                  -9.637
REMARK INTRA:                  -0.201
REMARK UNBOUND:                -0.416
REMARK  Name = 
REMARK  7 active torsions:
REMARK  status: ('A' for Active; 'I' for Inactive)
REMARK    1  A    between atoms: C_1  and  O_2
REMARK    2  A    between atoms: O_2  and  C_3
REMARK    3  A    between atoms: N_10  and  S_11
REMARK    4  A    between atoms: S_11  and  C_14
REMARK    5  A    between atoms: C_19  and  N_20
REMARK    6  A    between atoms: N_20  and  C_21
REMARK    7  A    between atoms: N_20  and  C_22
REMARK                            x       y       z     vdW  Elec       q    Type
REMARK                         _______ _______ _______ _____ _____    ______ ____
ROOT
ATOM      1  S   UNL     1      21.807   2.142  51.912  0.00  0.00    +0.000 S 
ATOM      2  O   UNL     1      21.502   1.789  50.537  0.00  0.00    +0.000 OA
ATOM      3  O   UNL     1      22.281   3.484  52.209  0.00  0.00    +0.000 OA
ENDROOT
BRANCH   1   4
ATOM      4  C   UNL     1      23.036   0.964  52.506  0.00  0.00    +0.000 A 
ATOM      5  C   UNL     1      22.547  -0.018  53.382  0.00  0.00    +0.000 A 
ATOM      6  C   UNL     1      23.426  -0.755  54.157  0.00  0.00    +0.000 A 
ATOM      7  C   UNL     1      24.796  -0.533  54.047  0.00  0.00    +0.000 A 
ATOM      8  C   UNL     1      25.367   0.346  53.097  0.00  0.00    +0.000 A 
ATOM      9  C   UNL     1      26.794   0.508  52.951  0.00  0.00    +0.000 A 
ATOM     10  C   UNL     1      27.234   1.467  52.019  0.00  0.00    +0.000 A 
ATOM     11  C   UNL     1      26.351   2.224  51.255  0.00  0.00    +0.000 A 
ATOM     12  C   UNL     1      24.981   2.056  51.401  0.00  0.00    +0.000 A 
ATOM     13  C   UNL     1      24.441   1.133  52.317  0.00  0.00    +0.000 A 
BRANCH   9  14
ATOM     14  N   UNL     1      27.755  -0.203  53.686  0.00  0.00    +0.000 N 
ATOM     15  C   UNL     1      28.409  -1.409  53.188  0.00  0.00    +0.000 C 
ATOM     16  C   UNL     1      28.369   0.392  54.873  0.00  0.00    +0.000 C 
ENDBRANCH   9  14
ENDBRANCH   1   4
BRANCH   1  24
ATOM     17  C   UNL     1      18.824   0.102  52.065  0.00  0.00    +0.000 A 
ATOM     18  N   UNL     1      17.891  -0.374  51.203  0.00  0.00    +0.000 NA
ATOM     19  C   UNL     1      17.443   0.516  50.297  0.00  0.00    +0.000 A 
ATOM     20 CL   UNL     1      16.310  -0.095  49.170  0.00  0.00    +0.000 Cl
ATOM     21  C   UNL     1      17.866   1.833  50.262  0.00  0.00    +0.000 A 
ATOM     22  N   UNL     1      18.820   2.316  51.098  0.00  0.00    +0.000 NA
ATOM     23  C   UNL     1      19.305   1.422  51.986  0.00  0.00    +0.000 A 
ATOM     24  N   UNL     1      20.362   1.951  52.767  0.00  0.00    +0.000 N 
ATOM     25  H   UNL     1      20.264   2.186  53.719  0.00  0.00    +0.000 HD
BRANCH  17  27
ATOM     26  C   UNL     1      18.291  -1.708  53.435  0.00  0.00    +0.000 C 
ATOM     27  O   UNL     1      19.277  -0.736  53.068  0.00  0.00    +0.000 OA
ENDBRANCH  17  27
ENDBRANCH   1  24
TORSDOF 4
ENDMDL
MODEL 4
REMARK VINA RESULT:    -7.568      4.454      6.958
REMARK INTER + INTRA:          -9.753
REMARK INTER:                  -9.656
REMARK INTRA:                  -0.097
REMARK UNBOUND:                -0.416
REMARK  Name = 
REMARK  7 active torsions:
REMARK  status: ('A' for Active; 'I' for Inactive)
REMARK    1  A    between atoms: C_1  and  O_2
REMARK    2  A    between atoms: O_2  and  C_3
REMARK    3  A    between atoms: N_10  and  S_11
REMARK    4  A    between atoms: S_11  and  C_14
REMARK    5  A    between atoms: C_19  and  N_20
REMARK    6  A    between atoms: N_20  and  C_21
REMARK    7  A    between atoms: N_20  and  C_22
REMARK                            x       y       z     vdW  Elec       q    Type
REMARK                         _______ _______ _______ _____ _____    ______ ____
ROOT
ATOM      1  S   UNL     1      23.936   3.063  51.723  0.00  0.00    +0.000 S 
ATOM      2  O   UNL     1      22.520   3.190  51.425  0.00  0.00    +0.000 OA
ATOM      3  O   UNL     1      24.415   3.429  53.046  0.00  0.00    +0.000 OA
ENDROOT
BRANCH   1   4
ATOM      4  C   UNL     1      24.829   4.046  50.505  0.00  0.00    +0.000 A 
ATOM      5  C   UNL     1      25.818   3.354  49.790  0.00  0.00    +0.000 A 
ATOM      6  C   UNL     1      26.783   4.055  49.085  0.00  0.00    +0.000 A 
ATOM      7  C   UNL     1      26.753   5.447  49.074  0.00  0.00    +0.000 A 
ATOM      8  C   UNL     1      25.717   6.207  49.664  0.00  0.00    +0.000 A 
ATOM      9  C   UNL     1      25.667   7.648  49.579  0.00  0.00    +0.000 A 
ATOM     10  C   UNL     1      24.623   8.290  50.270  0.00  0.00    +0.000 A 
ATOM     11  C   UNL     1      23.665   7.588  50.996  0.00  0.00    +0.000 A 
ATOM     12  C   UNL     1      23.721   6.203  51.067  0.00  0.00    +0.000 A 
ATOM     13  C   UNL     1      24.735   5.468  50.423  0.00  0.00    +0.000 A 
BRANCH   9  14
ATOM     14  N   UNL     1      26.595   8.436  48.881  0.00  0.00    +0.000 N 
ATOM     15  C   UNL     1      26.367   8.922  47.524  0.00  0.00    +0.000 C 
ATOM     16  C   UNL     1      27.715   9.059  49.585  0.00  0.00    +0.000 C 
ENDBRANCH   9  14
ENDBRANCH   1   4
BRANCH   1  24
ATOM     17  C   UNL     1      25.120   0.160  53.529  0.00  0.00    +0.000 A 
ATOM     18  N   UNL     1      26.129  -0.146  54.382  0.00  0.00    +0.000 NA
ATOM     19  C   UNL     1      27.336   0.345  54.039  0.00  0.00    +0.000 A 
ATOM     20 CL   UNL     1      28.600   0.013  55.142  0.00  0.00    +0.000 Cl
ATOM     21  C   UNL     1      27.550   1.078  52.884  0.00  0.00    +0.000 A 
ATOM     22  N   UNL     1      26.546   1.417  52.038  0.00  0.00    +0.000 NA
ATOM     23  C   UNL     1      25.324   0.962  52.390  0.00  0.00    +0.000 A 
ATOM     24  N   UNL     1      24.301   1.425  51.526  0.00  0.00    +0.000 N 
ATOM     25  H   UNL     1      23.847   0.846  50.871  0.00  0.00    +0.000 HD
BRANCH  17  27
ATOM     26  C   UNL     1      23.831  -1.090  55.017  0.00  0.00    +0.000 C 
ATOM     27  O   UNL     1      23.867  -0.371  53.779  0.00  0.00    +0.000 OA
ENDBRANCH  17  27
ENDBRANCH   1  24
TORSDOF 4
ENDMDL
MODEL 5
REMARK VINA RESULT:    -7.532      3.686      5.435
REMARK INTER + INTRA:          -9.710
REMARK INTER:                  -9.210
REMARK INTRA:                  -0.500
REMARK UNBOUND:                -0.416
REMARK  Name = 
REMARK  7 active torsions:
REMARK  status: ('A' for Active; 'I' for Inactive)
REMARK    1  A    between atoms: C_1  and  O_2
REMARK    2  A    between atoms: O_2  and  C_3
REMARK    3  A    between atoms: N_10  and  S_11
REMARK    4  A    between atoms: S_11  and  C_14
REMARK    5  A    between atoms: C_19  and  N_20
REMARK    6  A    between atoms: N_20  and  C_21
REMARK    7  A    between atoms: N_20  and  C_22
REMARK                            x       y       z     vdW  Elec       q    Type
REMARK                         _______ _______ _______ _____ _____    ______ ____
ROOT
ATOM      1  S   UNL     1      21.711   3.227  51.992  0.00  0.00    +0.000 S 
ATOM      2  O   UNL     1      22.487   4.350  52.489  0.00  0.00    +0.000 OA
ATOM      3  O   UNL     1      20.344   3.053  52.457  0.00  0.00    +0.000 OA
ENDROOT
BRANCH   1   4
ATOM      4  C   UNL     1      22.635   1.728  52.375  0.00  0.00    +0.000 A 
ATOM      5  C   UNL     1      21.948   0.788  53.159  0.00  0.00    +0.000 A 
ATOM      6  C   UNL     1      22.644  -0.228  53.793  0.00  0.00    +0.000 A 
ATOM      7  C   UNL     1      24.024  -0.323  53.631  0.00  0.00    +0.000 A 
ATOM      8  C   UNL     1      24.763   0.508  52.758  0.00  0.00    +0.000 A 
ATOM      9  C   UNL     1      26.183   0.346  52.550  0.00  0.00    +0.000 A 
ATOM     10  C   UNL     1      26.815   1.282  51.711  0.00  0.00    +0.000 A 
ATOM     11  C   UNL     1      26.120   2.316  51.091  0.00  0.00    +0.000 A 
ATOM     12  C   UNL     1      24.754   2.460  51.295  0.00  0.00    +0.000 A 
ATOM     13  C   UNL     1      24.033   1.583  52.128  0.00  0.00    +0.000 A 
BRANCH   9  14
ATOM     14  N   UNL     1      26.964  -0.659  53.143  0.00  0.00    +0.000 N 
ATOM     15  C   UNL     1      27.097  -2.000  52.584  0.00  0.00    +0.000 C 
ATOM     16  C   UNL     1      27.923  -0.326  54.197  0.00  0.00    +0.000 C 
ENDBRANCH   9  14
ENDBRANCH   1   4
BRANCH   1  24
ATOM     17  C   UNL     1      22.764   5.433  49.326  0.00  0.00    +0.000 A 
ATOM     18  N   UNL     1      22.774   6.766  49.074  0.00  0.00    +0.000 NA
ATOM     19  C   UNL     1      21.639   7.417  49.396  0.00  0.00    +0.000 A 
ATOM     20 CL   UNL     1      21.668   9.108  49.136  0.00  0.00    +0.000 Cl
ATOM     21  C   UNL     1      20.525   6.779  49.911  0.00  0.00    +0.000 A 
ATOM     22  N   UNL     1      20.510   5.453  50.196  0.00  0.00    +0.000 NA
ATOM     23  C   UNL     1      21.656   4.795  49.913  0.00  0.00    +0.000 A 
ATOM     24  N   UNL     1      21.617   3.438  50.318  0.00  0.00    +0.000 N 
ATOM     25  H   UNL     1      21.543   2.688  49.684  0.00  0.00    +0.000 HD
BRANCH  17  27
ATOM     26  C   UNL     1      25.083   5.438  49.078  0.00  0.00    +0.000 C 
ATOM     27  O   UNL     1      23.868   4.688  48.954  0.00  0.00    +0.000 OA
ENDBRANCH  17  27
ENDBRANCH   1  24
TORSDOF 4
ENDMDL
MODEL 6
REMARK VINA RESULT:    -7.390      3.305      4.474
REMARK INTER + INTRA:          -9.534
REMARK INTER:                  -9.389
REMARK INTRA:                  -0.146
REMARK UNBOUND:                -0.416
REMARK  Name = 
REMARK  7 active torsions:
REMARK  status: ('A' for Active; 'I' for Inactive)
REMARK    1  A    between atoms: C_1  and  O_2
REMARK    2  A    between atoms: O_2  and  C_3
REMARK    3  A    between atoms: N_10  and  S_11
REMARK    4  A    between atoms: S_11  and  C_14
REMARK    5  A    between atoms: C_19  and  N_20
REMARK    6  A    between atoms: N_20  and  C_21
REMARK    7  A    between atoms: N_20  and  C_22
REMARK                            x       y       z     vdW  Elec       q    Type
REMARK                         _______ _______ _______ _____ _____    ______ ____
ROOT
ATOM      1  S   UNL     1      22.737   2.311  50.736  0.00  0.00    +0.000 S 
ATOM      2  O   UNL     1      22.131   0.992  50.798  0.00  0.00    +0.000 OA
ATOM      3  O   UNL     1      22.845   2.978  49.449  0.00  0.00    +0.000 OA
ENDROOT
BRANCH   1   4
ATOM      4  C   UNL     1      24.389   2.174  51.444  0.00  0.00    +0.000 A 
ATOM      5  C   UNL     1      25.377   2.939  50.805  0.00  0.00    +0.000 A 
ATOM      6  C   UNL     1      26.716   2.669  51.029  0.00  0.00    +0.000 A 
ATOM      7  C   UNL     1      27.077   1.650  51.907  0.00  0.00    +0.000 A 
ATOM      8  C   UNL     1      26.142   0.925  52.681  0.00  0.00    +0.000 A 
ATOM      9  C   UNL     1      26.542  -0.079  53.639  0.00  0.00    +0.000 A 
ATOM     10  C   UNL     1      25.512  -0.781  54.293  0.00  0.00    +0.000 A 
ATOM     11  C   UNL     1      24.166  -0.526  54.053  0.00  0.00    +0.000 A 
ATOM     12  C   UNL     1      23.793   0.445  53.133  0.00  0.00    +0.000 A 
ATOM     13  C   UNL     1      24.748   1.191  52.416  0.00  0.00    +0.000 A 
BRANCH   9  14
ATOM     14  N   UNL     1      27.874  -0.411  53.935  0.00  0.00    +0.000 N 
ATOM     15  C   UNL     1      28.620  -1.436  53.214  0.00  0.00    +0.000 C 
ATOM     16  C   UNL     1      28.681   0.461  54.790  0.00  0.00    +0.000 C 
ENDBRANCH   9  14
ENDBRANCH   1   4
BRANCH   1  24
ATOM     17  C   UNL     1      20.616   5.238  50.607  0.00  0.00    +0.000 A 
ATOM     18  N   UNL     1      20.672   6.494  50.098  0.00  0.00    +0.000 NA
ATOM     19  C   UNL     1      21.839   7.138  50.293  0.00  0.00    +0.000 A 
ATOM     20 CL   UNL     1      21.937   8.699  49.602  0.00  0.00    +0.000 Cl
ATOM     21  C   UNL     1      22.897   6.584  50.993  0.00  0.00    +0.000 A 
ATOM     22  N   UNL     1      22.866   5.319  51.481  0.00  0.00    +0.000 NA
ATOM     23  C   UNL     1      21.715   4.649  51.259  0.00  0.00    +0.000 A 
ATOM     24  N   UNL     1      21.773   3.305  51.705  0.00  0.00    +0.000 N 
ATOM     25  H   UNL     1      21.297   2.981  52.504  0.00  0.00    +0.000 HD
BRANCH  17  27
ATOM     26  C   UNL     1      19.239   3.987  49.200  0.00  0.00    +0.000 C 
ATOM     27  O   UNL     1      19.423   4.544  50.508  0.00  0.00    +0.000 OA
ENDBRANCH  17  27
ENDBRANCH   1  24
TORSDOF 4
ENDMDL
MODEL 7
REMARK VINA RESULT:    -7.384      3.858      5.128
REMARK INTER + INTRA:          -9.527
REMARK INTER:                  -9.041
REMARK INTRA:                  -0.486
REMARK UNBOUND:                -0.416
REMARK  Name = 
REMARK  7 active torsions:
REMARK  status: ('A' for Active; 'I' for Inactive)
REMARK    1  A    between atoms: C_1  and  O_2
REMARK    2  A    between atoms: O_2  and  C_3
REMARK    3  A    between atoms: N_10  and  S_11
REMARK    4  A    between atoms: S_11  and  C_14
REMARK    5  A    between atoms: C_19  and  N_20
REMARK    6  A    between atoms: N_20  and  C_21
REMARK    7  A    between atoms: N_20  and  C_22
REMARK                            x       y       z     vdW  Elec       q    Type
REMARK                         _______ _______ _______ _____ _____    ______ ____
ROOT
ATOM      1  S   UNL     1      22.408   3.416  50.706  0.00  0.00    +0.000 S 
ATOM      2  O   UNL     1      21.895   4.266  51.765  0.00  0.00    +0.000 OA
ATOM      3  O   UNL     1      21.622   2.271  50.276  0.00  0.00    +0.000 OA
ENDROOT
BRANCH   1   4
ATOM      4  C   UNL     1      24.028   2.825  51.232  0.00  0.00    +0.000 A 
ATOM      5  C   UNL     1      25.119   3.408  50.571  0.00  0.00    +0.000 A 
ATOM      6  C   UNL     1      26.368   2.815  50.637  0.00  0.00    +0.000 A 
ATOM      7  C   UNL     1      26.539   1.649  51.380  0.00  0.00    +0.000 A 
ATOM      8  C   UNL     1      25.519   1.078  52.174  0.00  0.00    +0.000 A 
ATOM      9  C   UNL     1      25.737  -0.091  52.994  0.00  0.00    +0.000 A 
ATOM     10  C   UNL     1      24.622  -0.604  53.681  0.00  0.00    +0.000 A 
ATOM     11  C   UNL     1      23.361  -0.021  53.599  0.00  0.00    +0.000 A 
ATOM     12  C   UNL     1      23.164   1.105  52.810  0.00  0.00    +0.000 A 
ATOM     13  C   UNL     1      24.213   1.686  52.072  0.00  0.00    +0.000 A 
BRANCH   9  14
ATOM     14  N   UNL     1      26.970  -0.750  53.128  0.00  0.00    +0.000 N 
ATOM     15  C   UNL     1      28.007  -0.321  54.060  0.00  0.00    +0.000 C 
ATOM     16  C   UNL     1      27.165  -2.079  52.549  0.00  0.00    +0.000 C 
ENDBRANCH   9  14
ENDBRANCH   1   4
BRANCH   1  24
ATOM     17  C   UNL     1      22.450   6.892  49.706  0.00  0.00    +0.000 A 
ATOM     18  N   UNL     1      21.704   8.005  49.921  0.00  0.00    +0.000 NA
ATOM     19  C   UNL     1      20.371   7.822  49.847  0.00  0.00    +0.000 A 
ATOM     20 CL   UNL     1      19.425   9.209  50.175  0.00  0.00    +0.000 Cl
ATOM     21  C   UNL     1      19.794   6.603  49.540  0.00  0.00    +0.000 A 
ATOM     22  N   UNL     1      20.525   5.475  49.353  0.00  0.00    +0.000 NA
ATOM     23  C   UNL     1      21.862   5.637  49.461  0.00  0.00    +0.000 A 
ATOM     24  N   UNL     1      22.568   4.414  49.352  0.00  0.00    +0.000 N 
ATOM     25  H   UNL     1      23.101   4.169  48.561  0.00  0.00    +0.000 HD
BRANCH  17  27
ATOM     26  C   UNL     1      24.364   7.120  51.019  0.00  0.00    +0.000 C 
ATOM     27  O   UNL     1      23.827   7.019  49.695  0.00  0.00    +0.000 OA
ENDBRANCH  17  27
ENDBRANCH   1  24
TORSDOF 4
ENDMDL
MODEL 8
REMARK VINA RESULT:    -7.368      2.183      2.698
REMARK INTER + INTRA:          -9.507
REMARK INTER:                  -9.121
REMARK INTRA:                  -0.386
REMARK UNBOUND:                -0.416
REMARK  Name = 
REMARK  7 active torsions:
REMARK  status: ('A' for Active; 'I' for Inactive)
REMARK    1  A    between atoms: C_1  and  O_2
REMARK    2  A    between atoms: O_2  and  C_3
REMARK    3  A    between atoms: N_10  and  S_11
REMARK    4  A    between atoms: S_11  and  C_14
REMARK    5  A    between atoms: C_19  and  N_20
REMARK    6  A    between atoms: N_20  and  C_21
REMARK    7  A    between atoms: N_20  and  C_22
REMARK                            x       y       z     vdW  Elec       q    Type
REMARK                         _______ _______ _______ _____ _____    ______ ____
ROOT
ATOM      1  S   UNL     1      22.711   3.549  50.440  0.00  0.00    +0.000 S 
ATOM      2  O   UNL     1      22.028   2.466  49.755  0.00  0.00    +0.000 OA
ATOM      3  O   UNL     1      23.027   4.762  49.702  0.00  0.00    +0.000 OA
ENDROOT
BRANCH   1   4
ATOM      4  C   UNL     1      24.245   2.877  51.106  0.00  0.00    +0.000 A 
ATOM      5  C   UNL     1      25.419   3.379  50.525  0.00  0.00    +0.000 A 
ATOM      6  C   UNL     1      26.621   2.715  50.703  0.00  0.00    +0.000 A 
ATOM      7  C   UNL     1      26.661   1.559  51.479  0.00  0.00    +0.000 A 
ATOM      8  C   UNL     1      25.548   1.067  52.198  0.00  0.00    +0.000 A 
ATOM      9  C   UNL     1      25.629  -0.093  53.054  0.00  0.00    +0.000 A 
ATOM     10  C   UNL     1      24.433  -0.524  53.658  0.00  0.00    +0.000 A 
ATOM     11  C   UNL     1      23.220   0.130  53.462  0.00  0.00    +0.000 A 
ATOM     12  C   UNL     1      23.155   1.247  52.640  0.00  0.00    +0.000 A 
ATOM     13  C   UNL     1      24.293   1.748  51.979  0.00  0.00    +0.000 A 
BRANCH   9  14
ATOM     14  N   UNL     1      26.805  -0.820  53.299  0.00  0.00    +0.000 N 
ATOM     15  C   UNL     1      27.164  -2.026  52.561  0.00  0.00    +0.000 C 
ATOM     16  C   UNL     1      27.878  -0.242  54.108  0.00  0.00    +0.000 C 
ENDBRANCH   9  14
ENDBRANCH   1   4
BRANCH   1  24
ATOM     17  C   UNL     1      19.413   2.970  51.805  0.00  0.00    +0.000 A 
ATOM     18  N   UNL     1      18.136   2.905  51.349  0.00  0.00    +0.000 NA
ATOM     19  C   UNL     1      17.793   3.873  50.477  0.00  0.00    +0.000 A 
ATOM     20 CL   UNL     1      16.204   3.762  49.853  0.00  0.00    +0.000 Cl
ATOM     21  C   UNL     1      18.656   4.885  50.095  0.00  0.00    +0.000 A 
ATOM     22  N   UNL     1      19.943   4.945  50.520  0.00  0.00    +0.000 NA
ATOM     23  C   UNL     1      20.312   3.959  51.366  0.00  0.00    +0.000 A 
ATOM     24  N   UNL     1      21.687   4.016  51.700  0.00  0.00    +0.000 N 
ATOM     25  H   UNL     1      22.015   4.301  52.584  0.00  0.00    +0.000 HD
BRANCH  17  27
ATOM     26  C   UNL     1      19.569   0.704  52.338  0.00  0.00    +0.000 C 
ATOM     27  O   UNL     1      19.814   2.052  52.759  0.00  0.00    +0.000 OA
ENDBRANCH  17  27
ENDBRANCH   1  24
TORSDOF 4
ENDMDL
MODEL 9
REMARK VINA RESULT:    -7.278      3.733      5.698
REMARK INTER + INTRA:          -9.396
REMARK INTER:                  -8.991
REMARK INTRA:                  -0.405
REMARK UNBOUND:                -0.416
REMARK  Name = 
REMARK  7 active torsions:
REMARK  status: ('A' for Active; 'I' for Inactive)
REMARK    1  A    between atoms: C_1  and  O_2
REMARK    2  A    between atoms: O_2  and  C_3
REMARK    3  A    between atoms: N_10  and  S_11
REMARK    4  A    between atoms: S_11  and  C_14
REMARK    5  A    between atoms: C_19  and  N_20
REMARK    6  A    between atoms: N_20  and  C_21
REMARK    7  A    between atoms: N_20  and  C_22
REMARK                            x       y       z     vdW  Elec       q    Type
REMARK                         _______ _______ _______ _____ _____    ______ ____
ROOT
ATOM      1  S   UNL     1      23.675   3.213  51.764  0.00  0.00    +0.000 S 
ATOM      2  O   UNL     1      22.314   3.698  51.609  0.00  0.00    +0.000 OA
ATOM      3  O   UNL     1      24.321   3.325  53.062  0.00  0.00    +0.000 OA
ENDROOT
BRANCH   1   4
ATOM      4  C   UNL     1      24.691   4.076  50.550  0.00  0.00    +0.000 A 
ATOM      5  C   UNL     1      25.625   3.275  49.876  0.00  0.00    +0.000 A 
ATOM      6  C   UNL     1      26.671   3.861  49.184  0.00  0.00    +0.000 A 
ATOM      7  C   UNL     1      26.778   5.249  49.142  0.00  0.00    +0.000 A 
ATOM      8  C   UNL     1      25.806   6.119  49.687  0.00  0.00    +0.000 A 
ATOM      9  C   UNL     1      25.899   7.556  49.570  0.00  0.00    +0.000 A 
ATOM     10  C   UNL     1      24.906   8.313  50.218  0.00  0.00    +0.000 A 
ATOM     11  C   UNL     1      23.866   7.726  50.933  0.00  0.00    +0.000 A 
ATOM     12  C   UNL     1      23.785   6.343  51.035  0.00  0.00    +0.000 A 
ATOM     13  C   UNL     1      24.737   5.498  50.434  0.00  0.00    +0.000 A 
BRANCH   9  14
ATOM     14  N   UNL     1      26.917   8.233  48.881  0.00  0.00    +0.000 N 
ATOM     15  C   UNL     1      26.874   8.490  47.445  0.00  0.00    +0.000 C 
ATOM     16  C   UNL     1      27.940   8.978  49.615  0.00  0.00    +0.000 C 
ENDBRANCH   9  14
ENDBRANCH   1   4
BRANCH   1  24
ATOM     17  C   UNL     1      21.380   0.547  50.923  0.00  0.00    +0.000 A 
ATOM     18  N   UNL     1      20.197   0.062  51.379  0.00  0.00    +0.000 NA
ATOM     19  C   UNL     1      20.103  -0.047  52.718  0.00  0.00    +0.000 A 
ATOM     20 CL   UNL     1      18.593  -0.601  53.301  0.00  0.00    +0.000 Cl
ATOM     21  C   UNL     1      21.141   0.273  53.575  0.00  0.00    +0.000 A 
ATOM     22  N   UNL     1      22.318   0.786  53.137  0.00  0.00    +0.000 NA
ATOM     23  C   UNL     1      22.411   0.936  51.798  0.00  0.00    +0.000 A 
ATOM     24  N   UNL     1      23.619   1.563  51.404  0.00  0.00    +0.000 N 
ATOM     25  H   UNL     1      24.357   1.082  50.964  0.00  0.00    +0.000 HD
BRANCH  17  27
ATOM     26  C   UNL     1      20.864   1.717  48.973  0.00  0.00    +0.000 C 
ATOM     27  O   UNL     1      21.575   0.618  49.556  0.00  0.00    +0.000 OA
ENDBRANCH  17  27
ENDBRANCH   1  24
TORSDOF 4
ENDMDL
